16

O       0.71686199       1.24737654      -0.16906370 
C      -0.71516947       1.17278053       0.28868904 
C      -1.39399218      -0.07762020      -0.21727748 
C      -1.02619426      -1.27302256       0.47904767 
C       0.93870411      -1.13603792      -0.49388451 
C       1.46290040      -0.01244229       0.19264533 
H      -0.72610452       1.21947403       1.37305003 
H      -1.17492763       2.06066943      -0.10122166 
H      -1.21917668      -0.16205465      -1.29784816 
H      -2.51837843       0.08231559      -0.16209381 
H      -1.52860508      -2.12397950       0.25014321 
H      -0.67933406      -1.20089678       1.40953789 
H       1.03739087      -1.21173118      -1.50923514 
H       0.45529272      -1.97110912       0.02611537 
H       2.54468233       0.23788158      -0.10328157 
H       1.43600760      -0.12139425       1.30214019 
