10

O      -0.85595281       1.16331781       1.20178022 
C       0.91653447      -0.05799580       0.74273202 
C      -0.05914087      -0.63351224      -0.05370170 
C      -1.30649079       0.18133108       0.21229067 
H       0.61514872       1.70473077       0.54741768 
H       1.85523714      -0.25885387       0.77883984 
H      -0.21170347      -1.72638065       0.18687123 
H       0.20527816      -0.65778714      -1.15788950 
H      -2.13117240      -0.41496342       0.70021328 
H      -1.73274031       0.68629840      -0.68218839 
