15

C      -0.83290724       0.91988547      -0.56095361 
C       0.03858888      -0.04748417      -0.19339286 
C       1.39422371       0.45440687       0.24685383 
C       1.31877346       1.95729305       0.16890525 
C       2.23080839       2.65198359      -0.78941359 
H      -1.13996546       0.97152137      -1.59437347 
H      -1.73628962       1.06963622       0.05913961 
H      -0.18440288      -1.11037069      -0.19110503 
H       1.63896249       0.11067329       1.25971681 
H       2.19458760       0.05307202      -0.38794423 
H       0.05719499       1.91083504      -0.30241221 
H       1.24937313       2.43805165       1.10117559 
H       2.16013345       2.22970305      -1.78527232 
H       2.00420808       3.72081985      -0.85254268 
H       3.28069462       2.56161822      -0.47674838 
