16

C      -0.81590294      -1.25029955       0.78786986 
C      -1.44065060      -0.34945990       0.07792613 
C      -1.10828046       1.03249782       0.07743590 
C       0.42644361       1.20605809       0.39101829 
C       1.28921644       0.12593104      -0.33270351 
C       1.00781804      -1.21651195       0.09401858 
H      -1.14313173      -2.22884613       0.69971325 
H      -0.39916925      -1.06976594      -0.31741736 
H      -1.67207235       1.60964149       0.82009792 
H      -1.33201307       1.51357525      -0.89346958 
H       0.57202937       1.10996505       1.44939665 
H       0.74614409       2.18788405       0.09453570 
H       1.13277584       0.23542632      -1.43409528 
H       2.36775224       0.38559611      -0.16029560 
H       1.20281858      -1.94807407      -0.60091730 
H       1.42414706      -1.46693805       1.00050072 
