24

C       1.33907537      -0.58730861       0.18834093 
C      -0.14479442      -1.29719681       0.45375641 
C       1.10316927      -0.48413512       2.07260638 
C       0.37054736       0.59966655       2.52977891 
C      -1.13139820       0.36601457       2.85164465 
C      -1.38948113      -0.68672266       3.90869647 
O      -1.02391934      -0.19102608       5.26942287 
C       0.23677457      -0.76810141       5.77446935 
H       1.43469595       0.46949350       0.21346067 
H       1.33128425      -0.70878084      -0.92594826 
H       2.21449105      -1.16473188       0.39126332 
H      -0.90212109      -0.80868833       0.15602545 
H      -0.14228546      -2.26512167       0.49835335 
H       0.77747255      -1.42317344       2.38503481 
H       2.06077314      -0.40737437       2.29623339 
H       0.83647824       1.02694453       3.49852005 
H       0.42482143       1.43870262       1.86253421 
H      -1.55820724       1.30125216       3.17781880 
H      -1.65126853       0.08900079       1.95540953 
H      -2.49451808      -0.92788418       3.95101054 
H      -0.85975066      -1.61059331       3.71091371 
H       0.17647588      -1.85567537       5.79832484 
H       1.08238865      -0.46768005       5.14494456 
H       0.37743736      -0.38341010       6.78592143 
