14

O       1.09791457      -1.26369430      -0.34023639 
C      -0.14807171      -1.47528137      -0.68209692 
C      -0.98230662      -0.54721480      -1.05453462 
C      -0.89423368       0.69347876       0.44761458 
C       0.40047033       1.19063033       0.08342913 
C       1.53731102       0.16546829      -0.03901419 
H      -0.91270195      -0.74117367       0.10758392 
H      -1.93465283      -0.86811291      -1.25097729 
H      -0.98303492       0.42779914       1.41615094 
H      -1.67761621       1.27874967       0.16205711 
H       0.76069281       1.95368313       0.80655036 
H       0.32324171       1.73931365      -0.89098924 
H       2.23232318       0.44109929      -0.81442235 
H       2.08349246       0.07514229       0.88319694 
