15

O       0.13407448      -0.10424030      -0.25031166 
C       0.99788039      -0.90020145       0.66200655 
C       1.45288713      -2.15220449       0.01137389 
C       3.01140789      -2.23040364      -0.57422017 
C       2.48555816      -2.71542472       1.50421839 
H       0.68083421       0.21199364      -0.99027503 
H       1.80990876      -0.27718716       0.96995798 
H       0.35588085      -1.11006799       1.57459858 
H       0.89479683      -3.05450176       0.22531649 
H       1.01666107      -2.03925610      -0.99315843 
H       3.27963472      -3.04159238      -1.02833555 
H       3.53308832      -1.43374500      -0.54717650 
H       2.84643731      -3.57867969       1.25541607 
H       3.17638654      -2.01548844       1.67762453 
H       1.87530637      -2.78880592       2.23342871 
