20

C       1.06211333      -0.13319983       0.07631662 
C       0.68398060       1.31810617       0.34609594 
C       1.04302834       2.27450078      -0.80254850 
C       0.38816257       1.93310590      -2.14954589 
C      -1.13300794       1.84627931      -2.12849795 
O      -1.75261771       3.15648878      -1.89732500 
C      -1.79855030       3.63682058      -0.70549286 
O      -1.06593140       4.66029619      -0.34420005 
H       0.51545179      -0.53157855      -0.77670667 
H       0.83632291      -0.75904550       0.93810770 
H       2.12588972      -0.22616747      -0.13785539 
H      -0.38879576       1.38541406       0.55789385 
H       1.19524388       1.66073242       1.25182530 
H       0.76697797       3.29389421      -0.51270808 
H       2.12848373       2.27029879      -0.94439521 
H       0.68780857       2.68580762      -2.88626745 
H       0.77527540       0.97696939      -2.51324374 
H      -1.50951708       1.50352603      -3.09942810 
H      -1.49457474       1.15238656      -1.36177751 
H      -2.20442566       4.92146897      -0.61919520 
