21

O       1.04699609      -0.21350017       0.21253800 
C       0.65179753      -1.25979447      -0.72349226 
C       1.12663612      -0.95921269      -2.12790658 
C       2.67028433      -0.94367765      -2.28712360 
C       3.36260328      -2.08867084      -1.98493854 
C       2.13618331      -3.90692870      -2.14430430 
C       3.22302013      -3.43862733      -3.31682216 
H       1.99200237      -0.00536579       0.05478908 
H       1.03006771      -2.21908081      -0.37044864 
H      -0.47951186      -1.30974713      -0.69018229 
H       0.71138143      -1.67787573      -2.80422159 
H       0.74776600       0.00382796      -2.43322821 
H       2.88373478      -0.60292228      -3.27864081 
H       3.04207325      -0.04589340      -1.63332280 
H       4.34716194      -1.95763412      -2.03903643 
H       3.15181863      -2.49501703      -1.03805078 
H       2.43766585      -4.61608572      -1.56053202 
H       1.21425321      -3.76799802      -2.34058858 
H       4.25789638      -3.63467613      -3.14824720 
H       3.02311455      -4.29684273      -4.01249607 
H       2.98196048      -2.65532625      -3.99275546 
