15

O      -0.35589739      -0.39961717      -2.13348238 
C      -0.32044651       0.65050792      -1.38934268 
C       0.06066981       0.59811176      -0.03607444 
C       1.91421232      -0.11016282       0.16684877 
O       2.47228636       0.99755300       0.90047190 
O       1.32161428       2.13053581      -0.27700258 
C       1.93835991      -1.40115859       0.86711681 
H      -0.56673576       1.66830805      -1.85016452 
H      -0.34731197       1.28047383       0.58842258 
H      -0.20880236      -0.33031938       0.36813129 
H       2.13297024      -0.09842469      -0.83554276 
H       1.14183470       2.69255665       0.52085590 
H       1.35259839      -2.15334601       0.33364014 
H       2.97633107      -1.76891135       0.92454186 
H       1.56257591      -1.32323362       1.89834664 
