16

O       1.05846986       1.06919052      -0.60923320 
C      -0.67408998       1.23041013       0.27711865 
C      -1.37157039       0.06009562      -0.21263863 
C      -0.71207215      -1.27089080       0.21153479 
C       0.75041455      -1.31890675      -0.28985165 
C       1.43325242       0.00686767       0.08315428 
H      -0.57572612       1.32319913       1.27721508 
H      -0.84852273       2.14252815      -0.22951498 
H      -1.43557603       0.08750631      -1.30449322 
H      -2.43494097       0.03657057       0.14222206 
H      -1.24362161      -2.07327916      -0.15588818 
H      -0.71667713      -1.34497211       1.30956399 
H       0.76099470      -1.43423107      -1.36340760 
H       1.26049007      -2.15252834       0.14301269 
H       0.79998277       1.15473331       0.28960633 
H       1.53248756       0.18031057       1.16258635 
