24

C       1.48080579       0.37885630       0.20207914 
C       0.51027970      -0.58348406       0.74297349 
C       0.94160929      -1.36459919       2.15069945 
C      -0.16784792       0.53094410       2.12604427 
C      -1.39254140       0.15595656       2.66739567 
C      -1.33116442      -0.52081937       4.04269624 
O      -0.55863023       0.34922037       4.98287879 
C       0.49886885      -0.39809395       5.69977527 
H       1.87326015       1.05369603       0.92951606 
H       1.01286752       1.01091017      -0.61359291 
H       2.35005223      -0.13086344      -0.25516606 
H      -0.49463522      -0.51330694       0.40010815 
H       0.72948242      -1.48806163       0.10855315 
H       0.45150226      -2.15608260       2.36522476 
H       1.86080860      -1.24386920       2.42467375 
H       0.58418820       0.66623175       2.81966472 
H      -0.23696189       1.34328484       1.57791588 
H      -2.07940766       1.07349729       2.79224668 
H      -1.96817528      -0.47853818       2.01402703 
H      -2.34550212      -0.65996303       4.46171103 
H      -0.84957537      -1.50727378       3.99265539 
H       0.06411967      -1.20374168       6.29175287 
H       1.21358147      -0.81945159       4.98454378 
H       0.99992352       0.30913091       6.35093427 
