17

C       2.69925390       1.66318240       0.87964388 
C       1.72837017       0.77472242       0.24319378 
C       1.38933232      -0.46302084       0.81269637 
O       0.06732884      -0.12443997       1.36930824 
C      -0.17678024       1.08006060       0.77744091 
O      -0.62525793       2.11204036       1.70238654 
C      -0.95761575       1.07832112      -0.56280943 
H       2.59660680       1.67478606       1.99213067 
H       2.61549192       2.68279096       0.52099642 
H       3.74865856       1.34988725       0.68166481 
H       0.61378556       2.07388387       1.05847298 
H       1.55184019       0.93831787      -0.69730401 
H       1.26521308      -1.28890456       0.10521434 
H       2.03364557      -0.79699581       1.64677648 
H      -0.53157628       0.40746929      -1.26114755 
H      -1.98294202       0.76167934      -0.36796134 
H      -0.98726050       2.05325638      -0.98068922 
