24

C       1.74278610       1.24100044      -1.39106559 
C       0.43975260      -0.11703830      -2.52836336 
C       1.01717497      -1.40642170      -2.52073973 
C       0.82223038      -2.19255665      -1.25203137 
O      -0.63803621      -2.44643982      -0.98443906 
C      -1.23777968      -1.52948186       0.04770678 
C      -1.31739832      -2.21923835       1.40606483 
C       0.04374382      -2.45330412       2.05048932 
H       0.81965448       0.72498915      -1.10178675 
H       1.96594115       2.14056721      -0.98586335 
H       2.49049975       0.71647577      -1.76305812 
H      -0.54948577      -0.04506383      -2.26919717 
H       0.74022590       0.53190317      -3.21796282 
H       0.60601521      -2.04723201      -3.37021598 
H       2.08863451      -1.36057030      -2.73106371 
H       1.29569711      -3.19187191      -1.33082416 
H       1.26147996      -1.66904043      -0.38599753 
H      -0.64949559      -0.60818704       0.09778312 
H      -2.24253634      -1.28146828      -0.31705391 
H      -1.93426854      -1.60648770       2.07104939 
H      -1.83777418      -3.17688772       1.29293539 
H       0.59139883      -1.51819682       2.15601688 
H      -0.06737387      -2.89364796       3.03978374 
H       0.64664771      -3.12915988       1.44724936 
