19

O       1.76300676      -1.29956089      -0.73350116 
C       2.25153264      -0.02324835       0.44472211 
C       2.84317381       0.21915130      -1.09727157 
C       3.82963282       1.36378508      -1.04167021 
C       4.96556020       1.15963255      -0.05541528 
C       5.84542696      -0.06332064      -0.33154408 
C       6.60206838       0.01318208      -1.65056105 
H       1.43928683       0.40654836       0.67193812 
H       3.39392688      -0.58130918      -1.45675640 
H       2.08579872       0.51755207      -1.76686614 
H       4.22245005       1.51804949      -2.02771069 
H       3.29987072       2.27449958      -0.77787287 
H       5.59972823       2.06783714      -0.04869779 
H       4.54546575       1.06733978       0.94555593 
H       6.56174862      -0.16639852       0.48650720 
H       5.22697301      -0.96934572      -0.31446751 
H       7.23650154       0.89809035      -1.68554207 
H       7.23783430      -0.86257434      -1.78067342 
H       5.91863558       0.05824221      -2.49765616 
