8

O      -0.34981414       1.58314843       0.11360642 
C      -1.06872511       0.39753894      -0.03915153 
C      -0.18808447      -0.60566901      -0.32512868 
C       1.08011872      -0.04351590      -0.27776315 
H      -2.16348368       0.43692296       0.05754458 
H      -0.42080587      -1.67834500      -0.53216304 
H       0.89843614       1.57518754      -1.03884549 
H       1.92029049      -0.43001497      -0.52811582 
