20

C       0.38713861       0.22109543       2.93345528 
C      -0.02270611      -0.68848329       1.79454835 
C      -0.19727064      -0.00113640       0.52466729 
O       1.59002444      -0.57179248      -0.15487272 
C       2.32330310       0.51976973      -0.73368954 
O       0.99599025       1.58554052       0.30566047 
C       3.57345976       0.72703322      -0.43770014 
C       4.50990689      -0.54550430      -0.83395006 
H       1.32422885       0.72611626       2.68898139 
H       0.52030762      -0.33239502       3.84095208 
H      -0.36484531       0.99089618       3.10785067 
H       0.67087359      -1.52124849       1.72087687 
H      -1.02786781      -1.15997704       2.04927765 
H      -0.46684624      -0.58311558      -0.29665324 
H      -0.86221714       0.71319022       0.59799095 
H       4.01209417       1.61991731      -0.96236107 
H       3.74516968       0.90351756       0.60983311 
H       4.44857747      -0.73130680      -1.91465989 
H       5.50094968      -0.34281292      -0.56819122 
H       4.15182251      -1.43034799      -0.30170553 
