24

C       1.22145579       4.25760902      -2.70195296 
C       0.84255353       4.74128499      -1.30266591 
C      -0.57406162       4.33095767      -0.88256141 
C      -0.72454525       2.83499249      -0.65355625 
O       0.13619130       2.43813052       0.51194854 
C       1.85462055       1.60606262      -0.08820428 
C       1.08029882       0.39220408       0.09709110 
C       1.52374764      -0.62134197       1.09313761 
H       1.21746341       3.17166729      -2.75440020 
H       2.21803422       4.60056796      -2.96950296 
H       0.52149848       4.63325133      -3.44887044 
H       1.55741611       4.34740621      -0.57199440 
H       0.91944185       5.84102163      -1.26670365 
H      -0.84469844       4.85919993       0.03540975 
H      -1.30187792       4.64386892      -1.65403854 
H      -1.77799477       2.56397161      -0.40708310 
H      -0.41540438       2.25044756      -1.52452056 
H       2.16711864       1.85970951      -1.04260764 
H       2.46790451       1.91318259       0.70140967 
H       0.11297187       1.13233685       0.56730194 
H       0.67187896      -0.01563921      -0.79080325 
H       1.79500373      -0.15430370       2.04439093 
H       0.75199031      -1.37421689       1.28108502 
H       2.41400661      -1.15071629       0.73297525 
