10

O       0.31680598       0.88517971      -0.34117206 
C       1.02875570      -0.16830213       0.10959356 
C      -0.78594943      -1.32855645      -0.33915395 
C      -0.81997245       0.27911809       0.10882432 
H       2.01646240      -0.06460531      -0.06611138 
H       0.83312555      -0.52408923       1.03134626 
H      -0.87688968      -1.99552049       0.34760140 
H      -0.33688950      -1.54713512      -1.16101078 
H      -0.92594844       0.33352522       1.21223109 
H      -1.72311435       0.77361114      -0.31171984 
