18

O       1.03256448       2.85526142      -0.62432094 
C      -0.21784753       2.65691660      -0.74030536 
C      -0.84634100       1.56142344       0.04362809 
C      -0.33559734       0.12675786      -0.22819509 
O       1.18292638       0.10923683      -0.30383699 
O       1.71730028       1.03680829       0.75347353 
C      -0.76321287      -0.88398685       0.82665859 
C      -2.26324708      -1.15439283       0.81707523 
H      -0.56431496       2.74877223      -1.77659361 
H      -0.70751015       1.75948806       1.10457707 
H      -1.91376568       1.56381151      -0.13431756 
H      -0.62784368      -0.20417074      -1.22663336 
H       1.51269761       2.05980134       0.15506732 
H      -0.22420242      -1.82130062       0.65604294 
H      -0.45494174      -0.52227264       1.81486962 
H      -2.58549626      -1.52653359      -0.15391118 
H      -2.52122902      -1.89866502       1.56511952 
H      -2.83064155      -0.25035806       1.03414947 
