14

C       3.05133680       1.78202558       1.06609086 
C       2.12921079       1.39294909      -0.04123706 
C       1.52433023       0.06995732      -0.01304506 
O       0.19833511       0.07996944      -0.61578448 
C      -0.63508690       0.93306766      -0.16483944 
O      -0.24814017       2.12889102       0.04598320 
H       2.59962151       1.59682337       2.05318822 
H       3.32386068       2.84561565       1.00487949 
H       3.98461079       1.20891120       1.03026082 
H       0.95858793       2.06045809       0.08481199 
H       2.44229476       1.71625064      -0.99727850 
H       2.10099367      -0.68107753      -0.59993381 
H       1.44044605      -0.32036287       1.02237231 
H      -1.53735805       0.93944814      -0.84412006 
