21

C       1.58715731       0.58666247      -0.09517715 
C       0.83895814      -1.44371425      -0.48801284 
C       1.29020014      -2.25158885       0.56886083 
C       0.57765538      -2.04433051       1.90166253 
C      -0.89680594      -2.38388848       1.88907217 
O      -1.09294722      -3.85661816       1.67162491 
C      -1.64429078      -4.16889983       0.34224944 
H       0.58507102       0.15810154       0.01902341 
H       1.68888135       1.58335396      -0.26119774 
H       2.36777253       0.11725783       0.28449937 
H      -0.16402188      -1.44481582      -0.70376180 
H       1.43181144      -1.30710791      -1.27042143 
H       1.18677354      -3.36393879       0.32023525 
H       2.35780866      -2.12353698       0.72732751 
H       1.08035979      -2.65850804       2.67721087 
H       0.69909264      -0.98701036       2.21548941 
H      -1.35499783      -2.14799671       2.86157965 
H      -1.44270660      -1.83162627       1.11547772 
H      -2.62266032      -3.70131778       0.21343516 
H      -0.97239136      -3.82035919      -0.44820790 
H      -1.74503032      -5.25335309       0.28780551 
