10

O       0.29094565       0.89253117      -0.34588314 
C       0.80251009      -0.25841583       0.17917739 
C      -0.14835491      -1.54079457      -0.30836917 
C      -0.94127044       0.48482527       0.02149081 
H       1.85191938      -0.41209523      -0.15587731 
H       0.83306716      -0.24620515       1.28851189 
H      -0.52868900      -2.10937151       0.36726860 
H      -0.57208277      -1.47209136      -1.16883408 
H      -1.06929705       0.10916736       0.94705674 
H      -1.65464919       1.15188470      -0.22997332 
