11

O      -0.35640554      -1.15846620       0.30157906 
C       0.84167530      -0.64303204      -0.19206672 
C       0.90322495       0.70887962      -0.09389629 
C      -0.16347795       1.37098192       0.30244061 
C      -1.18320594      -0.18136940      -0.31115244 
H       1.64693367      -1.31655823      -0.32791314 
H       0.16611678      -0.07543804      -0.87644355 
H      -0.40680868       2.31134688      -0.13909658 
H      -0.46097708       1.34594786       1.30474220 
H      -2.09091152      -0.11619809       0.15449785 
H      -1.29492361      -0.32464677      -1.30627662 
