10

C      -0.75775280      -1.11566207       0.10882204 
C      -0.98970229       0.10591573      -0.02752439 
C       0.26893212       0.91201060      -0.04627757 
C       1.24991712      -0.23321549      -0.00102707 
H      -1.35033491      -1.87751495       0.14801954 
H      -2.02043959       0.59275606      -0.15956979 
H       0.35298034       1.60452615       0.84731034 
H       0.39029330       1.53389570      -0.92984383 
H       2.28895561      -0.08203607      -0.19566449 
H       0.90489657      -1.16793019       0.46497498 
