12

C       0.27932072       0.98799708       0.31543252 
C       0.88246593      -0.44626148      -0.00184197 
C      -0.17211672      -1.15602318       0.34944688 
C      -0.86219837       0.47891745      -0.49207839 
H       0.81010436       1.83375610      -0.13953032 
H       0.09314368       1.17372309       1.33563300 
H       0.25988175      -0.13284095      -1.14493329 
H       1.88376978      -0.72782437       0.02332103 
H      -0.68002535      -0.97681533       1.24763285 
H      -0.25752053      -2.18633377       0.03506057 
H      -1.76850235       0.27002489       0.00333894 
H      -1.11981323       1.12579606      -1.25250863 
