24

C       1.63873015       4.34198754       0.22258649 
C       0.83375909       3.14509451       0.37679671 
C      -0.59922688       3.22257421      -0.17397448 
C      -1.20746789       1.89323598      -0.59990601 
C      -1.25003783       0.79539038       0.53352015 
C      -0.16795259      -0.17236050       0.48552522 
C       1.20248674       0.37586593       0.88635615 
C       1.71068222       1.36849191       0.09835005 
H       1.52683743       4.92797080      -0.89107810 
H       2.61231267       4.26201614       0.54663458 
H       0.87177128       2.78247685       1.41088840 
H      -1.21639424       3.66018730       0.57957952 
H      -0.61341725       3.89275712      -1.00784045 
H      -2.22484902       2.08494058      -0.93035559 
H      -0.68155258       1.49903732      -1.45103734 
H      -1.28162871       1.31341979       1.53858801 
H      -2.22401277       0.26396371       0.44570462 
H      -0.40185461      -1.00951918       1.14621993 
H      -0.09373654      -0.59510920      -0.50373709 
H       1.15536310       0.69269312       1.98318682 
H       1.91723266      -0.55931594       0.96662726 
H       1.77952590       3.15987831      -0.51643130 
H       2.55058533       1.69446312       0.32770742 
H       1.50651662       1.31755136      -0.86582369 
