17

C       0.97931080      -0.41994693       0.31130086 
C       0.55630084       0.65561425       1.13289057 
C       0.89616497       2.53814640       0.04910731 
O       0.47045997       2.67073509      -1.25483596 
C       1.05026430       1.96391946      -2.20627703 
O       2.07008286       1.18084853      -1.92628788 
C       0.49400040       2.12245889      -3.57525067 
H       0.13633980      -0.93545271      -0.19177895 
H       1.57212881      -1.18137263       0.87056072 
H       1.60993694      -0.06152971      -0.53634556 
H      -0.14920414       1.38163343       0.72579801 
H       1.02851839       0.89896050       1.97277339 
H       0.54575499       3.27343371       0.63997617 
H       1.82123585       2.21711464       0.13089149 
H      -0.58640449       2.16273326      -3.56507562 
H       0.84565821       3.04904572      -4.03534370 
H       0.81431743       1.29585435      -4.21762917 
