24

C       1.55678658      -0.78708932       0.46899636 
C       1.43257786       0.15230568      -0.73895846 
C       1.49106107      -0.57067962      -2.08380712 
C       0.43331128      -1.69232571      -2.25564707 
C      -0.96196079      -1.22127176      -2.04639269 
O      -2.03573393      -2.47799067      -2.27627451 
C      -1.59691754      -0.97661778      -3.82082039 
C      -2.78646788      -0.20208906      -3.83007544 
H       0.68690149      -1.44166530       0.54620912 
H       1.63114334      -0.21011536       1.39915969 
H       2.44639027      -1.41560056       0.38386139 
H       0.49666860       0.71886944      -0.66007586 
H       2.24141563       0.89238178      -0.70463397 
H       1.36768612       0.15610821      -2.88051393 
H       2.48451874      -1.01300423      -2.21343343 
H       0.56553125      -2.13184139      -3.24431240 
H       0.66491980      -2.51317269      -1.54284941 
H      -1.16682826      -1.39376407      -0.98200643 
H      -1.04405974      -0.17297493      -1.98748911 
H      -0.80013356      -0.52272478      -4.21652969 
H      -1.70058783      -1.91876645      -4.19722943 
H      -2.65302510       0.77738080      -3.35004717 
H      -3.13822966       0.01399017      -4.87069852 
H      -3.60731916      -0.70208593      -3.33079833 
