24

C       2.05054207      -0.72065017       0.03030663 
C       0.93075080       0.56886535      -1.35341037 
C       1.25055485      -1.03708935      -1.66455456 
C       0.24805947      -2.04634132      -1.23911572 
C      -1.14853213      -1.75898409      -1.85642729 
O      -1.00411767      -1.64257254      -3.34041801 
C      -1.47723852      -0.32432352      -3.87933793 
C      -2.97634344      -0.19496249      -3.79017963 
H       2.39597265      -1.56149088       0.30989617 
H       1.32990954      -0.39085091       0.66720239 
H       2.75322496      -0.08536071      -0.13070780 
H       0.14547838       0.77969524      -0.84515186 
H       1.60165569       1.22158340      -1.61866730 
H       0.96481910      -0.95769608      -2.73536416 
H       2.25118018      -1.39435151      -1.90277982 
H       0.59153674      -3.07348998      -1.60838786 
H       0.13587451      -2.13485329      -0.19292593 
H      -1.84992136      -2.57956026      -1.64553881 
H      -1.56454453      -0.83190625      -1.45888612 
H      -0.96579867       0.47847702      -3.32890299 
H      -1.13594767      -0.30462092      -4.91984720 
H      -3.31490717      -0.19691455      -2.75648394 
H      -3.30697742       0.74069198      -4.24668029 
H      -3.46972299      -1.01450383      -4.30442382 
