15

C      -0.00488858       0.31090608       0.02074226 
C       1.20549825      -0.22250488      -0.05830440 
C       2.07918535       0.97388449      -0.08005336 
C       2.87352689       1.30298430      -1.30515307 
C       2.06360622       1.20824581      -2.59629804 
H      -0.70405577       0.16803925      -0.78534221 
H      -0.57257377       0.24017439       0.98555278 
H       1.49317004      -1.28250538      -0.20233603 
H       0.79989853       1.39887570      -0.03009775 
H       2.57515464       1.20542812       0.84808989 
H       3.29591580       2.30594686      -1.20938450 
H       3.74086637       0.61252345      -1.37955730 
H       1.22038989       1.89588940      -2.57438383 
H       2.68165266       1.45467538      -3.46451094 
H       1.67074309       0.20471499      -2.72866188 
