14

C       0.39170945      -2.76596564       0.71695597 
C       0.81366061      -2.39067875      -0.68614659 
O       1.72257222      -1.25081058      -0.67359486 
C       1.17914838      -0.07820068      -0.69877156 
O       0.00613430       0.10488835      -0.12951091 
C       1.89753980       1.08210990      -0.17188382 
H       1.25592520      -3.01616735       1.33017860 
H      -0.26753383      -3.62375710       0.69657483 
H      -0.13530066      -1.94071104       1.19440801 
H       1.35475087      -3.21577056      -1.16689112 
H      -0.05396247      -2.14060059      -1.30699429 
H       0.59937235       1.10076412       0.19056080 
H       2.51412013       0.99734535       0.68787074 
H       2.11211754       1.90303183      -0.80122158 
