21

C       0.87065018       0.11665136       0.55249685 
C       0.32472550       1.20731449       0.33677191 
C      -1.71890628       1.05503183      -0.46320444 
C      -1.37794183       1.63763588       1.06051937 
C      -1.09751593       3.09012001       1.28633929 
C      -1.79163019       4.04252713       0.27511382 
C      -3.30624931       3.92857850       0.27285644 
H       0.60056925      -0.54038871       1.39048995 
H       1.69409242      -0.32184564      -0.10011145 
H       0.55448769       1.85417265      -0.37977694 
H      -1.70134466       1.65041978      -1.19762578 
H      -1.90933848       0.08798357      -0.54116568 
H      -2.39065782       1.60459116       1.37218276 
H      -1.03638125       0.97704117       1.84918769 
H      -1.46413631       3.35239442       2.31099523 
H      -0.04247698       3.32191273       1.29039785 
H      -1.50264361       5.07816892       0.52545429 
H      -1.40395047       3.84936888      -0.72957166 
H      -3.71066768       4.11443421       1.26155676 
H      -3.74143034       4.64405148      -0.40717791 
H      -3.62319836       2.93879232      -0.03650208 
