11

O      -0.24790209      -0.88116030      -0.67101792 
C       1.11452645      -0.81759891       0.50220853 
C       0.83834373       0.62954417      -0.28079122 
C      -0.43189512       1.21356572       0.02234679 
C      -1.26099600      -0.02748069      -0.21322338 
H       1.73263671      -1.45020101       0.06729847 
H       1.69860142       1.22051368      -0.29481703 
H      -0.69436633       2.04986671      -0.66592203 
H      -0.53487677       1.63873333       1.04587465 
H      -1.77518307      -0.44654842       0.68650219 
H      -2.02883316       0.07483086      -1.02361041 
