14

C       2.45390426       1.60176141      -0.43585736 
C       1.04705566       1.51753612      -0.86664284 
O       0.60543068       0.17844623      -1.07870053 
C      -0.16357294      -0.01272260      -0.07187793 
O      -1.42819253      -0.20880070      -0.44517197 
C       0.33503154      -0.91539398       1.03163079 
H       2.65388246       0.97245670       0.42582283 
H       2.71114976       2.62302244      -0.16886543 
H       3.15047062       1.28443882      -1.23175256 
H       0.16119024       1.28722438       0.12606796 
H       0.81462591       2.12194260      -1.72024755 
H       0.42642833      -1.93693055       0.68975692 
H       1.30884298      -0.60321338       1.38386718 
H      -0.34624911      -0.91177892       1.86837476 
