18

C       0.78851975       1.40338252      -0.13225450 
C      -0.71387763       1.25526246       0.06606769 
C      -1.10600403       0.11523556      -0.59818788 
C      -0.79050149      -1.56113351       0.78893036 
C       0.36066562      -1.06154703      -0.30975080 
C       1.33518480       0.00482783       0.09217152 
H       1.23327443       2.12506921       0.52601915 
H       0.99689228       1.73164989      -1.16680382 
H      -0.92417188       1.20396596       1.13405351 
H      -1.23175889       2.18548442      -0.28402465 
H      -1.07847714       0.19489461      -1.58109188 
H      -2.05627971      -0.28745160      -0.32605191 
H      -1.24232262      -2.41561480       0.61127046 
H      -0.77359370      -1.15078179       1.62898717 
H       0.26613468      -1.28623115      -1.34847493 
H       1.04256806      -2.00150293      -0.10345677 
H       2.26804230      -0.14040929      -0.44556656 
H       1.57218340      -0.12429132       1.13976798 
