16

C      -0.19169827      -1.40882199       0.19308084 
C      -1.11777248      -0.45534524       0.28518715 
C      -0.88724088       0.94785587      -0.22628797 
C       0.42131791       1.56074678       0.31620602 
C       1.61950433       0.80198905       0.08693794 
C       1.03776409      -1.24803519      -0.45391842 
H      -0.39337336      -2.41011185       0.68014333 
H      -2.07892244      -0.67559913       0.73324670 
H      -1.73234592       1.59416040       0.05806334 
H      -0.86161437       0.94087758      -1.31960964 
H       0.27154702       1.71884530       1.41942086 
H       0.51158534       2.58971989      -0.12749484 
H       2.29970975       1.16735402      -0.55363905 
H       1.99564968       0.25415656       0.84123313 
H       1.21140942      -0.36924765      -1.07556620 
H       1.69889384      -2.00768356      -0.50140887 
