11

O      -0.40614149      -1.42814936      -1.27441007 
C       0.92255443      -0.93357224      -1.16716414 
C       1.16611466       0.27299098      -1.60398445 
C      -0.24576297       0.75919050      -0.34476583 
C      -1.19847626      -0.30762670      -0.67926217 
H       0.64051779      -0.35916916      -0.00679903 
H       2.05727827       0.77794355      -1.22326921 
H      -0.60740360       1.68870337      -0.63320809 
H       0.08419482       0.88273614       0.62021480 
H      -1.75014836      -0.71242527       0.18154574 
H      -1.92214445       0.00050489      -1.42981357 
