24

C       1.74692523       0.98264228      -1.69734705 
C       0.65207166       0.18716576      -2.39599334 
C       0.88276730      -1.32768981      -2.36851743 
C       0.76918317      -1.94178479      -0.99340886 
O      -0.62762092      -1.70244975      -0.48106961 
C      -0.81478614      -0.52175370       0.68423209 
C      -1.09673449      -2.18576778       1.29621812 
C       0.06897469      -2.91188141       1.78396548 
H       1.79473980       0.73731600      -0.63572827 
H       1.55839139       2.05196142      -1.78411846 
H       2.72009196       0.77496470      -2.13257402 
H      -0.31228536       0.40844523      -1.93412280 
H       0.58234502       0.51390421      -3.44669996 
H       0.16617556      -1.80814979      -3.03308015 
H       1.89052860      -1.55895958      -2.77513328 
H       0.92873859      -3.03498354      -1.03188668 
H       1.48673644      -1.49977558      -0.27433247 
H       0.05560560      -0.12038681       0.51602017 
H      -1.63214666      -0.10466813       0.29141223 
H      -1.65716890      -1.86260864       2.15461352 
H      -1.78854951      -2.78195180       0.78742939 
H       0.82264347      -2.25087090       2.20875716 
H      -0.20688085      -3.62186820       2.59967493 
H       0.55129913      -3.51411340       1.02319419 
