18

C       0.67577574       1.23754599      -0.25924602 
C      -0.79444521       1.18466586       0.19693210 
C      -1.59382719       0.23756644      -0.52354599 
C      -0.54838546      -1.40798748       0.49634403 
C       0.72276579      -1.28843958      -0.15340128 
C       1.45994865       0.00009927       0.19930054 
H       1.14659605       2.11855914       0.12842552 
H       0.71103146       1.30738591      -1.34067806 
H      -0.82056754       0.99802716       1.27442338 
H      -1.22902706       2.21984647       0.10551898 
H      -1.32258583      -0.01191262      -1.45222361 
H      -2.58117616       0.21562871      -0.32114406 
H      -1.48873966      -1.39450095      -0.06924226 
H      -0.58832984      -1.66908430       1.48622423 
H       0.61160166      -1.34029640      -1.26633023 
H       1.41408572      -2.16137767       0.13084837 
H       2.45261726      -0.00009259      -0.25363500 
H       1.60493483       0.04300337       1.28024039 
