20

C       3.79558262       0.49517994       1.21642801 
C       2.45891319       1.27814364       1.35826257 
C       1.69394700       1.33821761       0.11961234 
C       0.99181116       0.24871741      -0.27183689 
C      -0.30334519       0.13143406       0.51123821 
O      -0.89904004       1.49805308       0.44353837 
C       0.04085519       2.45937493       0.30367736 
O      -0.35374799       3.54401755      -0.58903513 
H       3.59941390      -0.53809020       0.93303144 
H       4.33309862       0.50054112       2.14598613 
H       4.41870673       0.94528807       0.45146023 
H       1.87995763       0.81144419       2.14512081 
H       2.70602764       2.28121096       1.71251879 
H       0.68339542       2.63286114      -0.81608469 
H       2.23399517       1.87722011      -0.64429615 
H       0.70864519       0.30624982      -1.39109258 
H       1.56648606      -0.74196188      -0.18387854 
H      -1.02841675      -0.55345821       0.07033858 
H      -0.15560529      -0.12141368       1.53076211 
H       0.51776561       2.92417274       1.30821148 
