24

C       0.95813091       0.13842271       0.10670277 
C       0.64069279       0.35075496      -1.37095437 
C       1.18638066      -0.74363223      -2.27816635 
C       0.56382573      -2.13066713      -2.05820607 
C      -0.98590527      -2.19119389      -2.40962600 
O      -1.23134741      -1.92593504      -3.81822829 
C      -2.48483271      -0.14319841      -4.10616279 
C      -2.92574211       0.57640362      -3.16270001 
H       0.50175130      -0.78024639       0.48175853 
H       0.58089321       0.97082474       0.70717081 
H       2.03558937       0.06605762       0.26689255 
H      -0.45178148       0.43341903      -1.50230147 
H       1.05736163       1.31133266      -1.68969055 
H       1.02422683      -0.44850368      -3.32145449 
H       2.26343954      -0.81927122      -2.14772880 
H       1.09341521      -2.86669397      -2.68769490 
H       0.68976959      -2.44201740      -1.02697280 
H      -1.36507598      -3.22217991      -2.21471463 
H      -1.54229941      -1.51338193      -1.79891397 
H      -0.69918296      -0.33487996      -4.09269684 
H      -2.66830396      -0.06181527      -5.03203195 
H      -2.60956172       0.27524655      -2.11620524 
H      -2.66809013       1.70036883      -3.19449819 
H      -4.03834648       0.60043983      -3.11068325 
