24

C       1.28228839      -0.20619115      -0.30278082 
C       0.05491174      -0.91356321       0.31012664 
C       0.14608359      -1.29580111       1.63705923 
C       1.06179077       0.42059120       2.65838309 
C      -0.52542699      -0.03297552       2.88903344 
C      -0.80731835      -1.02525830       3.93193153 
O      -1.29810593      -0.34245014       5.23065654 
C      -0.14847667       0.20303373       6.01326163 
H       1.39382754       0.79476555       0.07857884 
H       1.17708252      -0.13891568      -1.38919444 
H       2.18454781      -0.75158065      -0.08424676 
H      -0.81000479      -0.30683837       0.12003317 
H      -0.13930474      -1.83819161      -0.36042189 
H      -0.49310520      -2.02144271       1.84619674 
H       1.09301896      -1.60755576       1.94504438 
H       1.69434319       0.09876237       3.33810465 
H       1.21202600       1.24379186       2.18107749 
H      -0.77652344       0.93278579       3.43402944 
H      -1.28527223       0.12422715       2.13770895 
H      -1.65766212      -1.70867915       3.65275604 
H       0.02699426      -1.61921348       4.19246540 
H       0.51875224      -0.61141867       6.31295778 
H       0.40487088       0.92651785       5.41639039 
H      -0.56878482       0.68165371       6.88420641 
