24

C       0.86136538      -0.15252085      -0.33955893 
C       0.67834340      -1.13621316       0.79897620 
C       1.34342597      -0.68773310       2.10732381 
C       0.74995062       0.58410129       2.72056514 
C      -0.74049342       0.49322965       3.09262617 
C      -1.13174610      -0.62137722       3.89951964 
O      -1.71005541       0.30391785       5.80737953 
C      -0.32561784      -0.60918129       5.62028217 
H       0.37094273       0.79772224      -0.12514090 
H       0.43747559      -0.54681621      -1.26593271 
H       1.91997174       0.05140958      -0.51390022 
H      -0.39667039      -1.30590049       0.97088523 
H       1.09797991      -2.10244938       0.51141770 
H       1.27786867      -1.50499162       2.83401888 
H       2.40023024      -0.52456752       1.92965608 
H       1.32786350       0.84223609       3.60855866 
H       0.88312088       1.42442872       2.01881862 
H      -1.03258586       1.45326397       3.58295759 
H      -1.32478773       0.48422713       2.14030729 
H      -2.12824080      -0.64041322       4.10778827 
H      -0.82907612      -1.51074926       3.56796333 
H      -0.42384483      -1.67323902       5.70154080 
H       0.58951599      -0.30631213       5.15311917 
H      -0.09575177      -0.34692653       6.62517143 
