14

C       1.24178245       0.18146403      -0.21000626 
C      -0.05371316       0.46384821      -1.22191188 
C       1.55636000      -0.95996642      -1.69783506 
O       0.70140449      -1.97886412      -1.65972634 
C       0.82630524      -2.89059934      -0.81366129 
O       1.78920340      -2.91713326       0.07668005 
H       1.30087994      -0.73837972       0.34780722 
H       0.93789195       0.82800923       0.59005244 
H       2.15947519       0.65325822      -0.46583285 
H      -0.88692593      -0.04810190      -1.04122192 
H      -0.03008198       1.25097060      -1.75513276 
H       1.47957274      -0.42914540      -2.56862783 
H       2.47564415      -1.24730974      -1.49243657 
H       0.05854709      -3.68814272      -0.87571803 
