17

C       1.22232271      -0.52363781       0.30657424 
C       0.34630588       1.41282471       0.86867103 
C       1.07499609       2.38076627       0.16504946 
O       0.54946915       2.59323963      -1.17604448 
C       0.95838249       1.79655990      -2.11922062 
O       1.81737067       0.82229606      -1.87640138 
C       0.42509724       2.05611866      -3.47255293 
H       0.34607111       0.00488443      -0.08427258 
H       1.33397967      -1.47885294       0.00600633 
H       2.05608682      -0.04826892       0.51766337 
H      -0.67525506       1.41546075       0.75552603 
H       0.66246787       1.16223429       1.76709441 
H       1.03712184       3.41501417       0.63852733 
H       2.13565413       2.14457319       0.06855600 
H      -0.65888364       2.12021234      -3.46185865 
H       0.79732163       3.00690230      -3.85721028 
H       0.72434055       1.26992544      -4.16428321 
