16

C       1.22030463      -0.51937333       0.06163967 
C       0.07443318       0.10375871       0.13549081 
C      -0.30868617       0.61402468       1.49553145 
C       0.50968050       0.58583476       2.23908122 
C       1.88531299       1.09850934       1.75403546 
C       2.09483522       0.56182953       0.38968491 
H       1.47451779      -1.24395416      -0.77134838 
H      -0.80331413      -0.19105365      -0.52899714 
H      -1.20078182       0.08549512       1.78067420 
H      -0.74131707       1.61946415       1.31462597 
H       0.75132183      -0.43086809       2.58383140 
H       0.30723229       1.10234025       3.20766871 
H       1.94686179       2.21073910       1.77862968 
H       2.71276226       0.74245387       2.48490698 
H       0.96353007       1.10253968      -0.09221918 
H       3.12786752       0.62574603      -0.02771063 
