18

C       0.83075808       1.35322237      -0.29297445 
C      -0.54807749       1.60587256      -0.02976295 
C      -1.64846941      -0.29484420      -0.11257288 
C      -0.77547451      -1.35183057       0.23878670 
C       0.67188174      -1.19666705      -0.28481728 
C       1.37532323       0.03806329       0.27690763 
H       1.48813102       2.19799306       0.09579605 
H       1.03058967       1.38297348      -1.38738045 
H      -1.06546193       1.04672236       0.75401731 
H      -0.97321703       2.45540462      -0.36073971 
H      -1.63277294       0.04247666      -1.07328366 
H      -2.56599826      -0.26118877       0.34042482 
H      -1.15111619      -2.35848940      -0.15595000 
H      -0.74725508      -1.49928241       1.31596676 
H       0.66035050      -1.14684705      -1.37497591 
H       1.24556709      -2.09556522      -0.01378795 
H       2.44367543      -0.02457006       0.05820986 
H       1.27935945       0.04748173       1.37064575 
