17

C       1.15605302      -0.37920306       0.23945273 
C       0.27961634       1.43819308       1.11878374 
C       1.39482569       1.47290513      -0.12046794 
O       0.87738534       1.29786697      -1.43663994 
C       0.88065196       2.33340760      -2.23746034 
O       1.38728798       3.49747011      -1.82773793 
C       0.30072098       2.14163186      -3.57647312 
H       1.70332605      -0.83592045      -0.40446522 
H       0.16022946      -0.59492701       0.09105622 
H       1.46894473      -0.53683646       1.15775137 
H      -0.66108894       1.55513571       0.86691274 
H       0.61425391       1.55153796       2.00469393 
H       1.52154413       2.54762128      -0.11834268 
H       2.46610504       1.23501866      -0.00764084 
H      -0.78713903       2.07068972      -3.51184372 
H       0.54459745       2.97608948      -4.22680823 
H       0.65351237       1.22127845      -4.03006089 
