13

C       1.53437253      -0.22993911      -0.20601585 
C       0.23359556       0.06403720      -0.03824211 
C      -0.00836163       1.18507787      -1.00540019 
C       0.75903377       1.54319043      -1.29190213 
C       1.91992260       1.18879911      -0.44245966 
H       2.06358308      -0.75357992       0.59196020 
H      -0.54938738      -0.70574837       0.19173016 
H      -0.70568552       1.84996705      -0.39794394 
H      -0.76542198       0.90453691      -1.69340403 
H       1.18819699       1.14083510      -2.28073228 
H       0.82272159       2.60018020      -1.60658275 
H       2.94872188       1.52562082      -0.60373048 
H       1.02956374       1.04300293       0.53846556 
