12

C       0.62832736       1.18135676       0.00480136 
C       0.97124391      -0.25560131      -0.11055169 
C      -0.37707746      -0.92803000       0.11796007 
C      -1.32492342       0.17349324       0.03301559 
H       1.33329409       1.93550066      -0.20591152 
H      -0.27744718       1.39025263       0.59339411 
H       1.42103864      -0.49603524      -1.09623395 
H       1.74773752      -0.57914796       0.65162406 
H      -0.42223090      -1.44106598       1.11937461 
H      -0.56918197      -1.73176017      -0.64554611 
H      -2.16164035       0.15753654       0.61316685 
H      -1.43033138       0.62439453      -0.85972164 
