24

C       1.31319861       0.28751090      -0.19622321 
C       0.39630629       0.70182999      -1.07550310 
C      -1.07162913       0.53837252      -0.89519825 
C      -1.85370133       1.90316436      -0.80313263 
C      -1.68496729       2.79832722      -1.96284820 
C      -1.49604905       2.15349051      -3.48897830 
C      -3.45279645       2.70353344      -2.65511339 
C      -3.77748500       3.69183400      -3.57611046 
H       1.02728199      -0.20276937       0.72863140 
H       2.38001022       0.42569672      -0.38254233 
H       0.72468791       1.19069318      -1.99908659 
H      -1.48636724      -0.04340827      -1.73123351 
H      -1.27872732      -0.03664733       0.02705847 
H      -2.86593239       1.66237559      -0.58452917 
H      -1.46955176       2.44660014       0.11856057 
H      -1.94701285       3.82368121      -1.80049884 
H      -0.56892915       3.00479686      -1.86877307 
H      -1.25429406       2.77416736      -4.19084588 
H      -1.32243949       1.20062418      -3.54903683 
H      -3.58236876       1.72941121      -2.98748709 
H      -3.94096107       2.81741841      -1.81847220 
H      -3.30395823       3.56170702      -4.56727280 
H      -4.90545775       3.73106516      -3.80067984 
H      -3.53340587       4.67544734      -3.23718308 
