15

C      -0.60600641      -1.38251061      -0.08168117 
C      -1.26237856       0.71385535      -0.03128036 
C       0.04673186       1.28734984      -0.07246442 
C       1.17133913       0.27012256       0.11986789 
C       0.73066177      -1.06490620      -0.50201223 
H      -1.08575294      -2.14169067      -0.55592431 
H      -0.83235502      -1.27499838       0.88543520 
H      -1.51254603      -0.09533477      -0.72365481 
H      -2.04313209       1.34061933       0.22004960 
H       0.14498931       2.12187658       0.68273182 
H       0.21013268       1.80273297      -1.06932082 
H       1.34343528       0.12333620       1.19033508 
H       2.10824319       0.62727933      -0.31036813 
H       1.47728938      -1.86238665      -0.21596465 
H       0.79902397      -1.00748181      -1.61093205 
