15

C      -0.02086998       0.10715177      -0.05881399 
C       1.96902805      -0.06360898      -0.11545679 
C       2.34875203       1.24559438       0.17560457 
C       1.41414975       2.19644761       0.62394461 
C      -0.21090203       1.06621949       0.89764922 
H      -0.16887137      -0.91451005       0.18113756 
H      -0.25576113       0.35100304      -1.04555077 
H       1.78828174      -0.74921305       0.63293321 
H       2.17831903      -0.51723771      -1.07460387 
H       3.27535712       1.63242362      -0.17526974 
H       3.09721043       0.19819506       0.57872723 
H       0.89283870       2.71485995      -0.14002190 
H       1.75979251       2.87800917       1.31324528 
H      -0.89813256       1.84765695       0.70237613 
H      -0.21510424       0.74793009       1.91343389 
