13

O      -0.63897360      -0.83233289       0.75106608 
C      -1.23225254       0.39505485       0.69660870 
C       0.42044830       1.47461261      -0.27073278 
C       1.31154833       0.45222344       0.11775062 
C       0.67846130      -0.90883763       0.04307835 
H      -1.16659684       0.86660781      -0.29061594 
H      -2.16530229       0.32639988       1.08394500 
H       0.30483979       2.27070061       0.31722470 
H       0.31006574       1.65729521      -1.27021675 
H       1.66433532       0.61365577       1.16976891 
H       2.24438054       0.43081196      -0.50638980 
H       1.26251264      -1.69847661       0.54912861 
H       0.47575370      -1.22867689      -0.98034621 
