12

C       0.96371666      -0.10181054      -0.26679278 
C      -0.07640531       0.64390842      -0.01054123 
C      -1.10118711       1.02952898      -0.07360865 
C      -1.70138484       2.01555328       1.01952284 
H       1.34499715      -0.83391009       0.45631887 
H       1.65664924       0.12332289      -1.06975899 
H       0.70487863       1.89018423       0.84375850 
H      -1.44534735       1.57882651      -1.05028345 
H      -1.94199765       0.17177532      -0.16396941 
H      -1.15360843       2.92218245       1.01840020 
H      -2.74543441       2.22528723       0.81100616 
H      -1.62282948       1.55952711       2.00036698 
