22

O       0.89118206       0.27382775       0.00956993 
C       1.98374590      -0.21746056      -0.33402278 
C       2.70986331       0.18472071      -1.49793597 
C       4.00468520       1.82136361      -0.80410046 
C       5.00049746       1.42875823       0.12818405 
C       5.88872922       0.26197016      -0.29770305 
C       6.66711735       0.50692323      -1.61462633 
C       7.63894043       1.68062913      -1.53419830 
H       2.41664529      -1.02365152       0.25267500 
H       3.40543121      -0.45300477      -1.84411032 
H       2.18557959       0.71562654      -2.20522037 
H       3.92665387       1.33839518      -1.77547271 
H       3.33301189       2.56482987      -0.58347163 
H       5.68038263       2.31579567       0.40519849 
H       4.54747284       1.17922995       1.09806084 
H       6.61053352       0.04446504       0.51274375 
H       5.27475990      -0.64086153      -0.41626528 
H       7.22011474      -0.41098336      -1.86971469 
H       5.95349580       0.67780196      -2.43048375 
H       8.35463972       1.53676110      -0.73200869 
H       8.19077757       1.78525965      -2.46602782 
H       7.11209259       2.60879743      -1.35122726 
