17

C      -1.64487075       2.92331417       0.97938102 
C      -0.85391013       1.97068942       1.85661711 
C      -0.88122135       0.51059527       1.35098934 
C      -0.35996426       0.32907177       0.01060924 
O       1.48847937       0.07468068       0.70785052 
C       2.45891575       0.92855074       0.08184295 
O       0.81680262       1.81184293      -0.63097455 
H      -1.20433890       2.98401515      -0.01112874 
H      -1.64560071       3.93053750       1.41092163 
H      -2.67562154       2.60133902       0.87824170 
H       0.19373935       2.29789657       1.89759537 
H      -1.23084838       1.99176649       2.85653051 
H      -0.39774302      -0.10913001       2.05932540 
H      -1.97918942       0.16768160       1.32840734 
H      -0.15151501      -0.62185279      -0.30361436 
H      -0.97381307       0.73823340      -0.67337185 
H       2.82872802       1.53105050       0.67869124 
