13

O       0.06672365       0.15137329       0.34341745 
C       1.27095342      -0.22101267       0.23017793 
C       1.91321782       1.09197625       0.14679481 
C       2.47856798       1.60826720      -1.14788907 
C       1.59117910       1.36417850      -2.34918842 
H       1.46497805      -1.02567110      -0.50568438 
H       0.61281464       1.38657150       0.34323881 
H       2.42307207       1.42440101       1.02930905 
H       2.68738465       2.67443113      -1.05292865 
H       3.44997422       1.12399054      -1.31803116 
H       0.62705585       1.86244867      -2.22863201 
H       2.05707236       1.74478077      -3.25848694 
H       1.40182226       0.30988247      -2.48186604 
