21

C      -0.39787370       0.91583184       0.68658658 
C      -0.56998135       1.53784977      -0.58012442 
C       1.40526099       1.02875838      -1.39875921 
O       0.87908473      -0.03864059      -2.13167812 
C       1.59949154      -1.36040456      -1.90872065 
C       2.81552480      -1.46921381      -2.81124301 
C       3.95130525      -0.51377361      -2.41708636 
H      -0.10106865      -0.11655680       0.60299712 
H      -1.34485854       0.90158062       1.29435333 
H       0.32114342       1.41999060       1.30730204 
H      -1.01291490       1.03286276      -1.29657439 
H      -0.71124168       2.53951257      -0.58733534 
H       0.79430561       1.93049007      -1.51421870 
H       1.79824322       0.81204677      -0.51794931 
H       1.85956347      -1.42551687      -0.84964686 
H       0.85936600      -2.12717467      -2.14513484 
H       3.18288880      -2.51023905      -2.77757868 
H       2.51799590      -1.27737469      -3.84572463 
H       4.30428691      -0.72866792      -1.41148044 
H       4.78990913      -0.61188549      -3.10286873 
H       3.60411749       0.51150040      -2.43948297 
