12

C       0.40329158       0.98732123      -0.23732311 
C       1.00656999      -0.16562473       0.47759717 
C      -0.55901552      -0.97378963      -0.38936463 
C      -0.94685319       0.20577586       0.05317544 
H       0.64417654       1.09285936      -1.26658498 
H       0.51329921       1.94703497       0.28070922 
H       1.58660602      -0.85177037      -0.08043358 
H       1.62197370       0.13277905       1.24809733 
H      -1.11327283      -1.85541526      -0.12391217 
H      -0.06663351      -1.08089052      -1.30713435 
H      -0.23995403      -0.00669678       1.16836872 
H      -1.90937179       0.59823896       0.07516589 
