15

C       1.03642264      -0.10929543       0.77026351 
C       0.44480943       0.92837221       0.31083481 
O       1.09805371       2.07040952      -1.45076311 
C       2.38986420       1.53435062      -1.97889451 
C       3.48895231       2.47903781      -1.60913817 
H       1.96589759      -0.43004029       0.21389240 
H       0.42575306      -1.05426871       0.82904839 
H       1.37600504       0.02012477       1.80535090 
H       0.00708336       0.76631881      -1.42532713 
H      -0.31929573       1.34064612       0.66025152 
H       2.55893646       0.53576518      -1.55863711 
H       2.29300528       1.42182833      -3.09809440 
H       3.56402434       2.58051493      -0.54365746 
H       4.44152379       2.12596617      -1.98385932 
H       3.30839353       3.47331861      -2.02811739 
