9

O       2.40998914      -0.03527430      -0.67982683 
C       3.56546123       0.38362538      -0.39613830 
C       3.78243294       1.35887274       0.69631785 
O       3.74110127       0.65542659       1.98481493 
O       2.75595004      -0.47227882       1.80245104 
H       2.75027838      -0.29115163       0.44210821 
H       4.77237905       1.83151460       0.68111097 
H       3.01253750       2.14190907       0.72276698 
H       3.26994049      -1.24560250       2.15978719 
