16

O      -0.29569036       1.57777366      -0.33184594 
C       0.22423291       0.35610224       0.24947689 
C       1.36256893      -0.23842500      -0.42187894 
C       2.08766233       0.96823972      -0.13872655 
C       2.71378738       1.81534608      -1.12782159 
C       2.02626287       1.84897780      -2.49559723 
H      -0.59443597      -0.24771159       0.68033234 
H       1.74255760      -1.13811120       0.06500553 
H       1.20407010      -0.43243258      -1.46858089 
H       0.52320163       1.49735494       0.80075698 
H       2.39966820       1.09293638       0.81968673 
H       2.78172258       2.85761028      -0.73741872 
H       3.78555964       1.52808193      -1.28642851 
H       0.97240100       2.09667867      -2.37759743 
H       2.49575410       2.60036195      -3.13864616 
H       2.09743222       0.89272986      -2.99530346 
