24

C      -0.11810011       2.97542558       0.22831014 
C       0.09697628       2.24026595      -0.94311495 
C      -0.45185192       0.82633091      -1.01618411 
C       0.05737202      -0.07357485       0.12995558 
C       1.61025500      -0.25412950       0.11920280 
C       2.41225849       0.90999965       0.80223095 
C       1.66744757       2.26142346       0.77763137 
C       2.61009913       3.39947837       0.79762352 
H      -0.91675010       2.67528613       0.92049684 
H       0.07486158       4.06455213       0.20172341 
H       0.09700752       2.80775499      -1.94096040 
H      -1.54169515       0.84068431      -0.98314648 
H      -0.17674305       0.37973667      -1.96816151 
H      -0.24975104       0.32352331       1.06411861 
H      -0.38750232      -1.02361037       0.03263746 
H       1.84985500      -1.15303308       0.60277797 
H       1.92582452      -0.34444386      -0.87343647 
H       2.62888810       0.63634437       1.81432841 
H       3.35861512       1.00131533       0.29516986 
H       1.28924137       2.08123851      -0.44953378 
H       1.10872831       2.22777025       1.68295178 
H       3.24824338       3.38311454       1.69385037 
H       3.28108870       3.38738615      -0.06801466 
H       2.09249954       4.37312614       0.79904649 
