18

C       0.71504403       1.24449292      -0.07768030 
C      -0.78757425       1.40206334       0.12241749 
C      -1.34034287       0.00047620      -0.09329851 
C      -0.37406747      -1.06334610       0.31241006 
C       0.77133248      -1.57548007      -0.78576269 
C       1.10110071       0.10527072       0.59180139 
H       1.23773280       2.17204787       0.26630712 
H       0.92308068       1.18621358      -1.14709991 
H      -0.99292619       1.73643891       1.15448132 
H      -1.23088680       2.12161354      -0.54070517 
H      -1.57971525      -0.13208711      -1.14097258 
H      -2.27347465      -0.13584727       0.44536376 
H      -1.05576154      -1.99871004       0.11763232 
H      -0.27778163      -1.27946666       1.35603103 
H       0.75200259      -1.17256671      -1.62971756 
H       1.22030805      -2.43592523      -0.60342824 
H       2.04538054      -0.30427267       0.32057383 
H       1.07599850       0.19068470       1.57427185 
