22

O       1.21513750      -0.75033409      -0.31377281 
C       2.28946558      -0.08594469      -0.21134797 
C       3.02981616       0.42895361      -1.38433849 
C       3.85339932       1.68867228      -1.11202122 
C       5.02706246       1.50114921      -0.10350652 
C       5.98518688       0.43378716      -0.45597725 
C       6.25082742       0.03265789      -2.05212466 
C       7.43810740       1.54085321      -0.98149331 
H       2.71423750       0.10929120       0.78538561 
H       3.69089094      -0.36129395      -1.74557772 
H       2.31678814       0.61840849      -2.21718578 
H       4.25888163       2.05812502      -2.05534327 
H       3.19511876       2.47932331      -0.72682199 
H       5.47897332       2.44321535       0.02494270 
H       4.57415894       1.24638543       0.91929505 
H       6.67923180       0.14819610       0.33713191 
H       5.34499011      -0.46024355      -0.29016582 
H       6.85041356      -0.71232654      -2.22874188 
H       5.81069480       0.54946153      -2.73358920 
H       8.14718324       0.94536195      -1.24019075 
H       7.09602247       2.13479575      -1.72704721 
H       7.67661913       2.05311392      -0.20761216 
