15

O      -0.56520045       1.33074666       0.17955409 
C      -0.04140053       0.20622783      -0.11947406 
C       1.45212147       0.25863316      -0.08959714 
C       1.77345132       1.74749940      -0.16762190 
O       2.65198648       2.28554718       0.84132433 
O       2.30499382       1.67599317       2.16078079 
C       2.12770183       2.34108587      -1.48181417 
H      -0.53705054      -0.66120330       0.34148844 
H       1.87336295      -0.16236175       0.82585124 
H       1.93015986      -0.28701639      -0.90928475 
H       0.46572033       2.00734050       0.11549933 
H       2.88973572       2.21483339       2.76841870 
H       1.36714311       2.09690472      -2.22741017 
H       2.21452443       3.42841635      -1.42100566 
H       3.08207342       1.95925337      -1.85481540 
