14

O       1.06841608      -1.09000913       0.36365744 
C      -0.27796509      -1.28788066       0.20837677 
C      -1.23024739      -0.34884049       0.00851577 
C      -1.05731559       1.13181358      -0.07706948 
C       0.15820354       1.64405849       0.43591661 
C       1.64214323       0.07131405       0.03856212 
H      -0.53627817      -2.33112457       0.30263145 
H      -2.24345585      -0.71514890      -0.10336471 
H      -1.95396383       1.60708894       0.43749523 
H      -1.21839899       1.47926322      -1.14390139 
H       0.77854991       1.05779337       1.12061847 
H       0.38683668       2.63044033       0.31083523 
H       1.34323728       0.46893421      -0.83442864 
H       2.63929284       0.00995310       0.14754624 
