18

O       0.64612845      -0.42249593       0.26860460 
C       1.80983406       0.00037099       0.06643226 
C       2.60927211       0.65552421       1.12696568 
C       3.51354001      -0.38559546       1.57147113 
O       4.60709435      -0.63148154       0.66620168 
O       4.56300024      -2.11939741       0.25847333 
C       4.56389268       0.82812003       3.07228272 
C       3.90657687       1.59845567       4.09016706 
H       2.32760298      -0.20487666      -0.87036537 
H       3.15896558       1.53567676       0.74480401 
H       1.95729337       0.99862015       1.95120133 
H       3.15481970      -1.20182017       1.98506725 
H       5.45746233      -2.20807379      -0.15097770 
H       4.41056007      -0.24957895       3.00861020 
H       5.28152629       1.23551485       2.48243099 
H       2.89472598       1.21172240       4.33148713 
H       4.46208974       1.58990604       5.07216891 
H       3.81468184       2.65469714       3.81709883 
