10

C      -0.85107028      -0.58388010       0.07701083 
C      -1.80659713       0.33594386      -0.03827026 
C       0.04324774       1.52456690      -0.05491970 
C       0.44819531       0.12113242      -0.10680293 
H      -0.96176627      -1.65139232       0.35634882 
H      -1.61585961       1.35960016      -0.38936645 
H      -0.17137017       1.93407047       0.85598210 
H       0.24358807       2.15967506      -0.82744950 
H       0.95254088      -0.15935346      -1.07744706 
H       1.14917202      -0.16206529       0.73191912 
