18

C      -0.44454588      -1.30753466      -0.01668381 
C       1.03336648       0.03132332      -0.10193093 
C       0.53901324       1.15214795      -0.86302184 
O      -1.25425047       0.27375804      -0.93300145 
C      -2.31490760       0.84965573      -0.10930008 
C      -1.85996098       1.45684566       1.17097888 
H      -1.23950790      -1.19795889       0.57578132 
H       0.18956512      -1.93233146       0.51227428 
H      -0.64100635      -1.77439577      -0.88063343 
H       1.18250616       0.17711924       0.89652636 
H       1.72376503      -0.57548446      -0.55856427 
H       0.27231075       2.04565514      -0.37710592 
H       0.68096448       1.17839980      -1.88380985 
H      -2.80157358       1.61496355      -0.76430018 
H      -3.06834600       0.05156376       0.07825456 
H      -1.24816343       2.34816729       1.00772459 
H      -2.72927118       1.75865514       1.77849435 
H      -1.27664201       0.75430877       1.74988162 
