18

O       1.23507004       0.14719221       2.00803508 
C       2.13833781      -0.04080845       1.16562386 
C       3.03260201       1.27606308       0.66148498 
C       3.86429406      -0.34595036       1.89373189 
O       4.78531775      -0.50583002       0.85620446 
O       4.46177853      -1.78015738       0.14683457 
C       4.37601416       0.62200886       2.88751762 
C       3.37634480       0.99309621       3.95069685 
H       2.04773500      -0.79480462       0.37994623 
H       3.24322275       1.27094843      -0.26754759 
H       2.78762078       2.10723266       1.07045398 
H       3.68674819      -1.20761335       2.29428578 
H       5.14723777      -1.76830780      -0.57939839 
H       5.28133411       0.15058352       3.38636510 
H       4.75869619       1.51396286       2.40561995 
H       2.98783234       0.11282103       4.44271232 
H       3.82941357       1.62028393       4.69365425 
H       2.53327911       1.52577727       3.52127836 
