16

O       0.42261167       2.06282910       0.15274506 
C       2.29832167       1.38412588       0.08071532 
C       1.84764803       0.01748939       0.22362078 
C      -0.14515135       0.14832098       0.29472568 
C      -0.58995640       0.87814916       1.43515507 
C       0.04067489       2.19881560       0.79837413 
H       2.53686617       1.75458892      -0.83454239 
H       2.58825518       1.94421618       0.95231447 
H       2.04376994      -0.43626046       1.11447413 
H       1.98271417      -0.60155022      -0.61389527 
H      -0.36675954      -0.91801344       0.37273341 
H      -0.49197075       0.46391487      -0.60217284 
H      -0.28247941       0.44923181       2.37712797 
H      -1.66435487       1.09506723       1.47611341 
H       0.55901051       2.43291824       1.75754480 
H      -0.75193842       2.92395325       0.90820250 
