21

C       1.16881618       0.20497101      -0.02847168 
C       1.01924116      -1.20845300      -0.55273429 
C       1.39201368      -2.28744087       0.46646562 
C       0.54506123      -2.29223649       1.75215734 
C      -0.87562979      -2.29333495       1.58417369 
O      -1.47184001      -4.27466652       2.32562077 
C      -1.51955980      -3.85370306       0.71142057 
H       0.49772817       0.38571903       0.82283759 
H       0.93034267       0.92685454      -0.79679364 
H       2.18122202       0.39022333       0.30505707 
H      -0.01640730      -1.36605052      -0.89219859 
H       1.64345313      -1.33278288      -1.42957239 
H       1.31893644      -3.26717487      -0.01915320 
H       2.45040019      -2.16786858       0.74948594 
H       0.86856340      -3.16087161       2.37388792 
H       0.84468799      -1.39744832       2.35589968 
H      -1.38852228      -2.28825241       2.46530881 
H      -1.22939889      -1.58651886       0.97147787 
H      -2.38628410      -3.33004127       0.36237019 
H      -0.68632584      -3.78495329       0.03934831 
H      -1.80382906      -4.86803000       0.52370696 
