18

C       1.91980757      -0.25874121       0.31487602 
C       0.72438150      -0.44508968       1.22649374 
C       0.43324105       0.75847826       2.10287326 
C       0.04629969       1.97161795       1.32477336 
O      -0.24189043       3.26569706       2.33855724 
C      -1.84409915       2.00569679       1.51359786 
H       1.75679275       0.55086176      -0.39109022 
H       2.11399732      -1.15028415      -0.24638109 
H       2.81451979      -0.01985227       0.89058055 
H      -0.15612441      -0.68125287       0.62865810 
H       0.89955468      -1.32416946       1.87431255 
H      -0.34493599       0.48681286       2.82576821 
H       1.33592138       0.98567615       2.72214531 
H       0.96453798       2.49144068       1.11819766 
H      -0.17093791       1.75603335       0.29831922 
H      -2.17173105       2.76700724       0.93550336 
H      -2.11617421       1.10271584       1.17601834 
H      -2.04737647       2.13370960       2.50381173 
