9

O       1.10904893       0.09613827      -0.23612436 
C       2.22223537      -0.16086618       0.29848681 
C       2.83548351       0.87454656       1.16073636 
O       3.78569222       0.17583418       2.03574983 
O       2.86968632      -1.24956338       2.64336006 
H       2.97006966      -0.55315176      -0.41764552 
H       3.42757993       1.62088262       0.61663978 
H       2.07548154       1.38128478       1.77083719 
H       2.19563522      -1.02206291       1.09937163 
