18

C       1.01385708       0.55610417       0.31166034 
C       0.47215509       1.26290282      -0.53927816 
C      -1.57753014       0.66113644      -1.06071128 
C      -1.22204526       2.07016619      -0.24482109 
C      -0.93610124       3.33396573      -0.98859816 
C      -1.69507071       3.44107767      -2.32588096 
H       0.75090872       0.57512225       1.37260574 
H       1.83535573      -0.20460436       0.08068352 
H       0.69467061       1.31450314      -1.49804209 
H      -1.58098921       0.66758344      -2.00353089 
H      -1.77268398      -0.13581889      -0.51371706 
H      -2.23220541       2.24978283       0.01850151 
H      -0.87722457       2.05210372       0.78234970 
H      -1.25554696       4.18819278      -0.34120393 
H       0.11034250       3.49411346      -1.17596798 
H      -2.76680183       3.26651679      -2.17959440 
H      -1.56613988       4.43139210      -2.75829851 
H      -1.33123711       2.71509780      -3.03470269 
