18

C       0.73478470       1.31231920      -0.11701739 
C      -0.76366605       1.26259551       0.23619990 
C      -1.33909055      -0.12424290      -0.16787368 
C      -0.92039885      -1.14925284       0.54805803 
C       0.69956719      -1.15951709      -0.55648954 
C       1.41303240      -0.07366773       0.10231244 
H       1.24050545       2.07135878       0.46061538 
H       0.84591316       1.59231943      -1.18347022 
H      -0.89094742       1.41008335       1.29758237 
H      -1.29331724       2.05991168      -0.27356925 
H      -0.40835635      -0.43605231      -1.07888520 
H      -2.28161249      -0.13125955      -0.63273123 
H      -1.37511359      -2.11131530       0.38636850 
H      -0.49694215      -1.02977976       1.47035976 
H       1.06239112      -1.27533513      -1.50527063 
H       0.87762989      -2.08564151      -0.13107487 
H       2.45301774       0.00416799      -0.26221229 
H       1.49549274      -0.24925826       1.20110192 
