10

O       0.17821267       0.82701163      -0.26251425 
C       1.19287617      -0.35925682       0.33086713 
C      -0.47249453      -0.94357372      -0.01201982 
C      -1.11887615       0.31384135       0.04266715 
H       2.00020161       0.04933323      -0.12883423 
H       1.51118023      -1.24345928       0.70936904 
H      -0.74929110      -1.73065897       0.69330556 
H      -0.40614062      -1.35674591      -1.02033955 
H      -1.49140156       0.65990975       1.03829985 
H      -1.85322947       0.58614837      -0.75742870 
