24

C       1.41422675       0.73217456      -1.18410296 
C       0.69048076       0.09037710      -2.36426439 
C       1.06933749      -1.38676654      -2.58996704 
C       0.60100671      -2.32159357      -1.48446902 
O      -0.92364273      -2.32303990      -1.42354982 
C      -1.46936916      -1.42504214      -0.52030370 
C      -1.00630516      -2.24883616       1.46417418 
C       0.07318504      -2.17582050       2.32720733 
H       1.16183867       0.23421695      -0.24930992 
H       1.13497279       1.77984277      -1.09037139 
H       2.49451081       0.68075469      -1.31154232 
H      -0.38965559       0.16075235      -2.21192158 
H       0.92068730       0.65355283      -3.27873217 
H       0.64530490      -1.72124618      -3.54077127 
H       2.17064825      -1.47868885      -2.68436526 
H       0.88558540      -3.36130176      -1.69557011 
H       0.97922252      -2.03765973      -0.50247046 
H      -0.79533306      -1.06736113       0.26103267 
H      -2.43847511      -1.58684902      -0.33887290 
H      -1.88085871      -1.81223490       1.76946935 
H      -1.09077363      -3.09320982       0.90415428 
H       0.20493314      -1.21057833       2.76320536 
H      -0.00297782      -2.88408627       3.23227904 
H       1.01395090      -2.46169203       1.85992129 
