20

C      -2.07678700       2.13804953       2.04823059 
C      -2.47219769       0.70347022       2.35546047 
C      -2.03671138      -0.30257975       1.27747212 
O      -0.60562149      -0.47991062       1.26522871 
C       0.12406969       0.20644606       0.45176883 
O      -0.57295323       0.91928301      -0.60380252 
C       1.47852425      -0.22708626       0.11598607 
C       1.73418566       1.05654326      -0.37724290 
H      -0.98692189       2.26858750       2.09901128 
H      -2.52521776       2.82349470       2.76352438 
H      -2.39855277       2.42692563       1.04409998 
H      -2.05891912       0.40200783       3.32017353 
H      -3.56155060       0.64155230       2.45158636 
H      -2.46633373      -1.29545971       1.49566115 
H      -2.35342597       0.01698541       0.27803109 
H       2.07346983      -0.54904816       0.98799887 
H       1.50748299      -0.99769817      -0.62097163 
H       0.09761476       1.50567237       0.47607144 
H       1.91917942       1.81251215       0.28621992 
H       2.11771440       1.19831176      -1.30745065 
