16

O       1.66406437      -1.67473365      -0.35301501 
C       2.22878798      -0.53649018      -0.08707592 
C       3.16063450      -0.34862606       0.97320915 
C       3.90247587      -1.70062697       1.60269572 
C       4.55677324      -0.73357295      -0.25846494 
C       5.76577610      -0.24299586       0.18119049 
H       1.98593698       0.34229607      -0.71303868 
H       3.62499883       0.62916745       1.05673997 
H       2.47542665      -0.20926955       1.86226755 
H       4.52029286      -1.56672354       2.32709071 
H       3.44920047      -2.52524654       1.43232156 
H       4.51890092      -1.76206302      -0.44670383 
H       4.24780117      -0.26358783      -1.06891352 
H       6.18001600      -0.77012958       1.06104688 
H       6.58467751      -0.33598699      -0.61839863 
H       5.73912237       0.78381757       0.41768895 
