18

O      -1.12326032      -0.06371922      -0.69901226 
C      -0.26339212       0.07001770       0.11622674 
C       1.66687454      -0.03148607      -0.38531437 
C       2.14469592       1.31760118      -0.18304565 
O       0.28152705       1.99569884       0.06516194 
O      -0.49301617       2.48098944      -1.13100708 
C       2.78599962       1.72313833       1.07252473 
C       4.26585345       1.36732696       1.13494473 
H      -0.40559916      -0.02555618       1.11344660 
H       1.95190562      -0.74010739       0.27845219 
H       1.55714091      -0.34674529      -1.34181261 
H       2.29291227       1.91780962      -1.03670705 
H      -1.06572799       1.68254427      -1.31048774 
H       2.68215474       2.79681568       1.21085927 
H       2.28020980       1.25494036       1.92767798 
H       4.81877720       1.84922018       0.32205864 
H       4.70145961       1.68248156       2.06992167 
H       4.41211576       0.28185458       1.03828102 
