15

O       2.27596196       0.56748842      -1.88905921 
C       3.21248008       0.61699827      -1.25872866 
C       2.88644352       1.77293483       0.58285104 
C       4.05646007       1.84143048       1.29954569 
O       4.74539018       0.49766924       1.34897961 
O       3.87190860      -0.40523038       2.17963141 
C       5.14374869       2.80154412       0.73223564 
H       3.92741945       1.18955172      -1.55882005 
H       2.84826974       2.07460422      -0.46598304 
H       2.16613155       1.25209713       0.90402122 
H       3.87560165       2.09934066       2.37173054 
H       3.74929145      -1.16871014       1.55412621 
H       4.77945677       3.83337696       0.75425929 
H       6.02821208       2.74008361       1.29958812 
H       5.37791648       2.54676155      -0.30684930 
