10

O       0.32849487       0.48366368       1.10790315 
C       1.00410834      -0.31392226      -0.01723164 
C      -0.41211721      -0.93223809      -0.07483266 
C      -1.14449192       0.16599493      -0.15367584 
H       1.29692784       0.33494622      -0.80782667 
H       1.82326893      -0.90643305       0.37568011 
H      -0.25887525      -0.80663443       1.24827369 
H      -0.64036341      -1.89509317      -0.40753244 
H      -2.20643564       0.13667042       0.10107990 
H      -0.91142294       0.93313781      -0.88427833 
