14

C       0.96568786      -0.39281015      -1.32376964 
C       1.41660820       0.21218241      -0.04477065 
C       2.64170381       0.98893825      -0.02876042 
O       1.35455761       2.49233329       0.27008084 
C       0.98151227       3.18638439      -0.73660982 
O       0.30030480       2.70247545      -1.74421411 
H       1.01729532       0.32873025      -2.13992851 
H      -0.04936370      -0.77346612      -1.25172598 
H       1.61542169      -1.24160555      -1.59221571 
H       0.77628650       1.32619677       0.17772565 
H       1.24332666      -0.38196231       0.82037575 
H       3.20689367       1.03225969       0.84126954 
H       3.09673239       1.23344035      -0.91896216 
H       1.28891245       4.25439869      -0.71161879 
