24

C       1.10914319       0.22053798      -0.52030527 
C       0.16837450      -0.49893647       0.48456188 
C       0.77501747      -0.67890925       1.82581661 
C       1.02726443       0.70130481       2.72633096 
C      -0.81848518      -0.48402065       2.84413987 
C      -0.72435818      -0.90600913       4.14927925 
O      -0.46528764       0.26924368       5.10363001 
C      -0.32764695      -0.20977327       6.49912696 
H       1.37896227       1.20268004      -0.14485301 
H       0.61273049       0.34606884      -1.48849668 
H       2.02244279      -0.34566707      -0.67307413 
H      -0.74596303       0.04535066       0.51570321 
H      -0.09683740      -1.52157448       0.05393953 
H       0.74686617      -1.66570777       2.25069806 
H       1.86769356      -0.77306291       1.54921577 
H       1.32516163       0.60265949       3.63763870 
H       0.87439803       1.54822133       2.28052398 
H      -1.13401361       0.48725131       2.72171984 
H      -1.38444537      -1.06887064       2.31099679 
H      -1.68297357      -1.40907211       4.53500125 
H       0.05195910      -1.63702010       4.33750374 
H      -1.23062946      -0.73370402       6.80987490 
H       0.52791412      -0.88412989       6.58632781 
H      -0.17299005       0.66881239       7.12243635 
