18

C       0.78530462       1.55958216      -0.77788658 
C      -0.36636082       1.04880153       0.31459351 
C      -1.33545154      -0.01016613      -0.09677897 
C      -0.79191666      -1.41396304       0.12739289 
C       0.71216841      -1.26521675      -0.07027195 
C       1.10329107      -0.12615534       0.59624058 
H       1.23430029       2.42000676      -0.59368889 
H       0.77035899       1.15598852      -1.62223299 
H      -0.27333028       1.26171326       1.35950565 
H      -1.04344403       1.98731194       0.11971489 
H      -1.56493951       0.12086356      -1.14682701 
H      -2.27247612       0.13272275       0.43351928 
H      -1.23783764      -2.13438036      -0.53294784 
H      -1.00123746      -1.74147826       1.16067423 
H       0.92218776      -1.21127456      -1.13979135 
H       1.22913994      -2.19463029       0.27740705 
H       2.04960250       0.27751195       0.32374071 
H       1.07815655      -0.20867655       1.57919519 
