24

O       0.76214107       0.34872036      -0.28691914 
C       0.35347078      -0.91792157       0.33254152 
C       1.18520135      -2.06995340      -0.16017611 
C       2.68741597      -1.94892144       0.15836921 
C       3.01615562      -1.84017277       1.56377512 
C       2.89253117      -4.00806360       1.92460141 
C       3.29896610      -5.34092720       1.66743372 
C       4.73338199      -5.48380637       1.13071136 
H       1.72909405       0.46537166      -0.12285222 
H       0.42428110      -0.81399976       1.42775427 
H      -0.69403773      -1.05822509       0.08081967 
H       0.80167952      -2.99516939       0.27981647 
H       1.06977255      -2.16848051      -1.22022282 
H       3.19331289      -2.78653637      -0.29802613 
H       3.10302720      -1.05490247      -0.41257692 
H       3.90640050      -1.47842638       1.78816067 
H       2.28233687      -1.65537352       2.23259106 
H       3.64571962      -3.27104597       2.22677627 
H       1.91707464      -3.83480551       2.14113743 
H       3.22539183      -5.99225524       2.62015592 
H       2.60017934      -5.84001919       0.98102434 
H       5.44866471      -5.04628147       1.81958929 
H       4.99620069      -6.54533533       0.98712207 
H       4.83532942      -4.97406255       0.16846012 
