21

C       2.74032322      -0.90507713      -2.15857278 
C       1.41908477      -0.63688490      -1.40978756 
C       1.61456538       0.30984410      -0.26275509 
C       1.83028041       1.71591892      -0.55071519 
O       0.00474238       1.84870159       0.25246229 
C      -0.98300255       1.97618472      -0.82460225 
C      -0.98106505       3.37510285      -1.34616405 
H       3.18245404       0.03720841      -2.49510859 
H       2.56622962      -1.53201516      -3.01606457 
H       3.45838881      -1.40127261      -1.50514125 
H       0.69485174      -0.21861725      -2.12166279 
H       1.00853673      -1.58361572      -1.05840110 
H       0.46299456       0.62469113       0.25781538 
H       2.19110918      -0.08833400       0.53745404 
H       2.40941035       2.28265474       0.12845442 
H       1.80669400       2.03641752      -1.53228347 
H      -0.74134510       1.24937196      -1.61662166 
H      -1.99042710       1.68349428      -0.40603517 
H       0.00777976       3.64476252      -1.71726722 
H      -1.70542643       3.48546528      -2.18184023 
H      -1.25091196       4.08193334      -0.57190162 
