11

C       2.84068003       0.66585067       0.96651367 
C       1.84587579       0.77619216      -0.00519162 
O       0.89161025      -0.20966508      -0.02549635 
C      -0.06005858       0.45859293      -0.52389200 
O       0.14213815       1.27689712      -1.70571879 
H       2.43625331       0.53586699       1.99488765 
H       3.49737709       1.55046353       0.97920233 
H       3.52005025      -0.21786389       0.82674869 
H       0.23795298       1.71491554      -0.37896480 
H       2.04109914       1.18837774      -0.89393773 
H      -1.06918811      -0.00849877      -0.46557842 
