15

C      -0.05671305       1.55350521      -1.74026946 
C       0.49243359       0.32879673      -1.19116098 
C       1.75697913      -0.15552466      -1.68323359 
C       2.37548193       0.99936327      -1.11564159 
C       3.14247895       1.93474386      -1.87123863 
H       0.31578783       1.92287927      -2.65679344 
H      -1.10241695       1.75256596      -1.52093344 
H      -0.29540351      -0.41043806      -0.88874827 
H       2.06176779      -1.10241830      -1.24431893 
H       1.83469911      -0.21841426      -2.75666683 
H       0.62405101       1.43597852      -0.52272504 
H       2.48303337       1.01305305      -0.10947349 
H       2.69996796       2.13898706      -2.85961922 
H       3.26057729       2.89150085      -1.35261804 
H       4.18369328       1.58498035      -2.09541062 
