19

O      -0.28674556       2.29932276      -0.75966237 
C       0.37510086       1.37842092       0.14973820 
C       0.28275005      -0.04506267      -0.10214932 
C       1.80833890      -0.35403913      -0.01220751 
C       2.32587371       0.91755529       0.16777630 
C       3.15080591       1.61729621      -0.82474303 
C       2.83483362       1.33504931      -2.28048888 
H       0.34591770       1.77336817       1.27210583 
H      -0.26071312      -0.56710577       0.63101688 
H      -0.12140438      -0.25879378      -1.05394650 
H       1.98716042      -1.00067432       0.80240288 
H       2.15137484      -0.84445416      -0.89980711 
H       1.09494351       2.08729346      -0.67140288 
H       2.44743259       1.26020115       1.13287629 
H       3.11047539       2.68425421      -0.65299589 
H       4.27375362       1.36367560      -0.65575364 
H       1.81190842       1.58868701      -2.51669385 
H       3.47912515       1.91284135      -2.92344344 
H       2.98037132       0.27607197      -2.52362510 
