15

C       0.80441337      -0.16473578      -0.15006152 
C       0.87778051       1.22648071      -0.61916847 
O       0.65811512       1.32561563      -2.27052363 
C       2.63981550       1.35460761      -1.31795635 
C       3.01635191       2.70783274      -1.48871458 
H       0.48171435      -0.82743431      -0.93961439 
H       0.06824167      -0.26575160       0.67823934 
H       1.75127514      -0.54311302       0.22570831 
H      -0.16763615       1.58899360      -0.59404924 
H       1.22516047       1.89326187       0.14124319 
H       3.14000990       0.87399456      -0.61237305 
H       2.62310835       0.80261403      -2.18920003 
H       2.98973138       3.27268777      -0.54838753 
H       4.05982304       2.80420544      -1.87298509 
H       2.38298262       3.22977717      -2.20277127 
