18

C       0.92334604       0.91216576      -0.91556571 
C       0.24975043      -0.30819430      -1.54271176 
C       0.86534952      -1.61447443      -1.06186572 
O       0.67223205      -1.72091311       0.41990804 
C       1.73677167      -2.22957888       1.12830450 
C       3.75807951      -2.98568012       1.55105825 
H       0.83786225       0.87435172       0.16764614 
H       0.46130712       1.83357638      -1.26540854 
H       1.98184944       0.94377937      -1.16812053 
H      -0.81777451      -0.30046012      -1.30645068 
H       0.33138735      -0.26002915      -2.64089023 
H       0.37594778      -2.48368161      -1.51799975 
H       1.93992982      -1.66284972      -1.27540884 
H       2.71217913      -1.92024233       0.73834370 
H       1.58195115      -2.14888150       2.08857334 
H       4.46042396      -2.90569173       0.88877866 
H       3.86094916      -2.46098271       2.37756916 
H       3.32447993      -3.86495615       1.62745371 
