24

C       1.25882715       0.20519016      -0.22802925 
C       0.14259292      -0.21643820       0.50929544 
C       1.17889742      -0.96480853       2.29675258 
C       0.16024318       0.35456287       2.32191985 
C      -1.26601150       0.09540560       2.63638079 
C      -1.45566942      -0.52300265       4.05366356 
O      -0.78170017       0.35035144       5.06146161 
C       0.18098259      -0.38277956       5.89651272 
H       1.47970523       1.24315058      -0.08711004 
H       1.11276345       0.08534772      -1.35457833 
H       2.18018331      -0.35733512      -0.00052244 
H      -0.66676556       0.23603502       0.23033711 
H      -0.02451573      -1.23515997       0.50329165 
H       0.82685677      -1.79439962       2.64064413 
H       2.11607362      -0.79470427       2.18974017 
H       0.51003765       0.68857812       3.34117330 
H       0.39854132       1.29338329       1.86980002 
H      -1.83367261       1.08167576       2.60499391 
H      -1.75588010      -0.54735328       1.93691469 
H      -2.52551565      -0.58541362       4.31428160 
H      -1.02645795      -1.52564010       4.10200279 
H      -0.32227246      -1.15815754       6.47185610 
H       0.95507827      -0.83836001       5.27355901 
H       0.63311191       0.34615191       6.57495620 
