18

C      -0.05513065       2.43423069      -0.46486636 
C      -0.36311101       1.45335888       0.49300889 
C       0.07170504       0.02327512       0.12607617 
C       1.61803874      -0.08357782       0.14244083 
C       2.28353629       1.25080141      -0.33755098 
C       1.73094609       2.42524594       0.43722262 
H       0.04317415       2.16472619      -1.53623421 
H      -0.44592913       3.45885600      -0.28798437 
H      -1.30879630       1.54989701       1.09979666 
H      -0.34521449      -0.68541540       0.81246202 
H      -0.29020110      -0.22241912      -0.85431962 
H       1.94456674      -0.28355887       1.14183029 
H       1.93889770      -0.88621265      -0.46177009 
H       3.34071162       1.16695566      -0.19306475 
H       2.12028820       1.36623627      -1.38776127 
H       0.72843585       1.88213740       1.05803766 
H       2.33959947       2.54206917       1.29356921 
H       1.82413747       3.33722762      -0.03408214 
