15

C      -0.04423318       0.00380330      -0.05996503 
C      -0.32273425       0.94394654       0.91415594 
C       1.19784391       2.21488444       0.65530636 
C       2.22519634       1.35169123       0.20571403 
C       1.95364939      -0.00854723      -0.09260449 
H      -0.29141275       0.24470015      -1.05187202 
H      -0.11197516      -1.01594299       0.16582578 
H      -1.07641571       1.66011628       0.72045874 
H      -0.30578017       0.61443590       1.91932075 
H       1.48062424       2.92234462       1.35833835 
H       0.64865793       2.68181596      -0.09914151 
H       3.04091987       0.35961326       0.61869598 
H       3.11230655       1.80863892      -0.13998172 
H       1.81788305      -0.70446032       0.66403947 
H       2.22418881      -0.43626706      -1.03243408 
