24

O       0.27615398      -0.21697061      -0.17740112 
C       0.92340066      -1.01806655       0.91220845 
C       1.31099231      -2.35718485       0.43567935 
C       2.86935490      -2.53979671      -0.12859940 
C       2.32030073      -2.81925600       1.97992334 
C       2.30672926      -4.16359272       2.29793218 
C       3.19740894      -5.13025263       1.48530185 
C       4.66921880      -4.76666430       1.50442174 
H       0.91709009      -0.14017706      -0.91325666 
H       1.74106547      -0.45255799       1.27592831 
H       0.14461718      -1.07258853       1.73912076 
H       0.70333220      -3.18328076       0.73102578 
H       0.87064048      -2.33924331      -0.62969298 
H       3.06196766      -3.33455656      -0.63346290 
H       3.36469132      -1.71604936      -0.25865958 
H       3.26783055      -2.39518131       1.92463946 
H       1.79959639      -2.29812539       2.63575951 
H       2.62781069      -4.31431560       3.40848569 
H       1.30756608      -4.55887646       2.28514953 
H       3.06906292      -6.14783283       1.90584772 
H       2.83867528      -5.18560418       0.44997316 
H       5.04968546      -4.73105648       2.52676376 
H       5.26197148      -5.50429481       0.94565570 
H       4.84030571      -3.78992619       1.05065302 
