16

O       0.88714344      -0.45792068      -0.16637679 
C       1.96331179       0.10705144       0.08716010 
C       2.69656590      -0.07737507       1.30485843 
C       4.04705651      -1.76250772       0.88871578 
C       5.04879170      -1.48804255      -0.08868715 
C       5.89813567      -0.24467068       0.18367705 
H       2.37966104       0.81560307      -0.62542797 
H       3.37167903       0.63028506       1.54207266 
H       2.18268971      -0.49452369       2.08735336 
H       3.94085803      -1.13674136       1.77174555 
H       3.39997914      -2.55032698       0.77791416 
H       5.75941591      -2.38675966      -0.21669501 
H       4.60226422      -1.39872254      -1.09226112 
H       6.39174319      -0.31248154       1.15060906 
H       6.67949601      -0.12521911      -0.59453025 
H       5.28174541       0.66107937       0.18088511 
