11

C       2.60551444       2.31105529       0.12481845 
C       2.24918671       0.93968483       0.11930743 
O       0.91449392       0.72787626      -0.41314480 
C      -0.01754881       1.43198411       0.07810429 
O       0.16403242       2.64357025       0.30312648 
H       1.35666463       2.78679966       0.29997110 
H       2.88237251       2.72132700      -0.78610735 
H       3.21284160       2.65211974       0.93548564 
H       2.91027409       0.30751998      -0.52839522 
H       2.28931273       0.49142166       1.14387286 
H      -0.92782235       1.31344093      -0.61067536 
