24

C       2.06641964       0.38590254       0.37108685 
C       1.20257589       0.22445713      -0.87452818 
C       1.44073277      -0.96211602      -1.61101943 
C       0.04209024      -2.61140401      -2.00465246 
C      -1.31087066      -2.48075195      -2.29909393 
O      -1.57674786      -2.09123337      -3.73728994 
C      -1.44771368      -0.61411507      -3.98595715 
C      -2.60711425       0.15947440      -3.39914526 
H       1.89226476      -0.43140597       1.06819538 
H       1.84158950       1.32268446       0.88057769 
H       3.12876625       0.38605781       0.11312505 
H       0.13312202       0.31177799      -0.59315963 
H       1.35316810       1.14795962      -1.52495578 
H       0.80793754      -1.16953569      -2.47935306 
H       2.31346174      -1.45799450      -1.54091450 
H       0.63277705      -3.13349904      -2.65330037 
H       0.28900494      -2.68876825      -1.02638076 
H      -1.90031088      -3.46007153      -2.20100383 
H      -1.83697620      -1.77179366      -1.63538384 
H      -0.49307783      -0.26218842      -3.58431738 
H      -1.41778705      -0.51470881      -5.06568937 
H      -2.61375497       0.10867848      -2.31135739 
H      -2.54227076       1.20961453      -3.68082645 
H      -3.55779822      -0.22962421      -3.75916089 
