8

C       0.87589219      -0.13926227       0.10160247 
O      -0.07821864      -1.06257641       0.39840308 
C       0.38522759      -2.67766458      -0.24094265 
O       1.25339054      -2.63650946      -0.93076096 
H       0.46675900       0.87142023       0.48210765 
H       1.06360062      -0.03733460      -0.95079003 
H       1.80266010      -0.30212484       0.61902953 
H       0.92072327      -2.76503751       1.36753343 
