21

C       1.95392102      -0.33179958       0.69053612 
C       0.70017350       1.13325027       1.74761889 
C       0.97026515       2.39271378       1.16487837 
C       0.43314725       2.61340421      -0.22792316 
O      -1.04485096       2.87338495      -0.23620430 
C      -1.88685994       1.65290991      -0.50554289 
C      -1.76601170       1.18920196      -1.93697207 
H       0.88093611      -0.11851895       0.61240564 
H       2.29666826      -1.26652442       0.50763530 
H       2.60183207       0.40855402       0.60297658 
H      -0.27799817       0.85211243       1.84894359 
H       1.30175960       0.80592158       2.46927342 
H       0.56134447       3.24592932       1.80604926 
H       2.04217436       2.57775184       1.14016448 
H       0.88979389       3.52016831      -0.67428854 
H       0.65909476       1.75775696      -0.88637604 
H      -1.60696088       0.86187514       0.19808621 
H      -2.91448206       1.97086274      -0.27827818 
H      -0.76811731       0.81561349      -2.15584852 
H      -2.46966759       0.38408228      -2.13310324 
H      -1.97895506       2.00040175      -2.62989455 
