21

C       0.46993186       2.28955731      -0.61493156 
C      -0.27112281       1.26722796      -0.30801365 
C       0.26877504      -0.00711329       0.25622716 
C       1.71179062      -0.28725391      -0.18000733 
C       2.59653684       0.88556444       0.01116651 
C       3.81701191       0.98720385      -0.80685237 
C       3.56474100       1.10527961      -2.31470498 
H       0.50363066       2.61387914      -1.64628131 
H       0.35469342       3.21947030      -0.01288263 
H      -1.35302162       1.32015908      -0.34961857 
H       0.22977284       0.02427346       1.34562242 
H      -0.37384324      -0.85188567      -0.02467851 
H       2.08849694      -1.17429195       0.38717299 
H       1.70871554      -0.59201485      -1.24011734 
H       1.71986949       1.82603951      -0.35040558 
H       2.76890971       1.09949714       1.03191248 
H       4.40504071       1.85586475      -0.48270151 
H       4.47975588       0.10138523      -0.63067678 
H       2.96095064       1.97524452      -2.53261119 
H       4.51133610       1.19916295      -2.85930017 
H       3.04297641       0.23224735      -2.69744346 
