20

C       1.67773602       3.57664597      -2.46767104 
C       2.95609432       3.14158018      -1.77906111 
C       2.83975913       3.08107612      -0.23807908 
C       1.76735616       2.08616916       0.25097680 
O       2.97446947       0.57472379      -0.24492755 
C       2.14432647      -0.39628295      -0.40025469 
O       2.02596892      -1.52412525      -0.70632159 
C       0.46849852       0.57972915       0.08195720 
H       0.86243444       2.85943278      -2.27538382 
H       1.81652152       3.63668838      -3.53998773 
H       1.35156960       4.55162550      -2.11322556 
H       3.26121343       2.15699931      -2.15077778 
H       3.76674911       3.83948682      -2.03717842 
H       3.80921819       2.81884268       0.18808359 
H       2.57662887       4.08709093       0.14063784 
H       1.86625603       1.96604100       1.24979716 
H       0.92690095       2.55103657      -0.00943822 
H       0.11043593       0.93752918      -0.76101146 
H       0.07582418      -0.41142486       0.17724304 
H       0.09241552       1.03461109       0.87377067 
