20

C       1.57821443       0.33558930      -0.11803707 
C       0.39549122       0.26416781      -0.88295226 
C       1.25847089      -0.57969454      -2.71925001 
C       0.15672763      -1.39743859      -1.77562859 
O      -1.18867198      -1.07639471      -2.10415565 
C      -2.13755689      -1.68739191      -1.39788497 
O      -1.80361670      -2.56849376      -0.46633965 
C      -3.53344959      -1.31142830      -1.70440543 
H       1.66793210      -0.46209573       0.56325271 
H       1.62570800       1.27466621       0.50569423 
H       2.50134106       0.35567678      -0.73043769 
H      -0.40951196       0.23791106      -0.31460953 
H       0.28305859       0.99902971      -1.59006680 
H       0.90373224      -0.14207721      -3.48473640 
H       2.16905578      -0.85299068      -2.65253758 
H       0.27403266      -2.35616969      -2.29910523 
H       0.29622143      -1.79830506      -0.78579238 
H      -3.62794546      -0.91310959      -2.70904804 
H      -4.19689407      -2.16635483      -1.59227145 
H      -3.87510215      -0.54823535      -1.01221756 
