20

C       0.70448363       0.13477926      -0.16108788 
C       0.29551958      -1.29657407      -0.47201500 
C       1.21910759      -2.35578322       0.11218167 
O       0.90714128      -2.80554008       1.44844953 
C       1.92280301      -1.88764195       2.61591848 
O       2.18780031      -0.82128053       2.33471194 
C       0.38271477      -2.18875803       3.16798195 
C      -0.75228086      -1.38576642       2.72439829 
H       0.74922731       0.30854168       0.91617943 
H      -0.00183384       0.83638938      -0.59318094 
H       1.69063210       0.35088806      -0.57045268 
H      -0.72865772      -1.47565948      -0.13950919 
H       0.28358278      -1.42771254      -1.56392977 
H       1.12721936      -3.28250622      -0.48460434 
H       2.27526034      -2.04516038       0.05122853 
H       0.16790451      -3.22680247       3.29235739 
H       0.55933867      -1.86832952       4.19454336 
H      -1.23746166      -1.78393838       1.84671201 
H      -1.54305557      -1.32887744       3.53546480 
H      -0.45810611      -0.35893945       2.51280259 
