18

C       2.10579765       0.30119678       0.53050851 
C       0.39624306      -0.77298288       1.39971402 
C       0.82726933       0.77076473       1.85560466 
C       0.29652410       1.91391556       1.08670572 
O      -0.86021062       2.59101998       1.84793636 
C      -2.13026064       1.84527167       1.65540618 
H       2.67072136       1.06741332       0.42242956 
H       1.61022358       0.09177582      -0.31821260 
H       2.59359603      -0.44772498       0.89994769 
H      -0.27058232      -0.86101822       0.71410765 
H       0.72285200      -1.50704706       1.93620396 
H       0.14735931       0.76684454       2.72850789 
H       1.70597337       0.94514493       2.45640313 
H       1.05291439       2.72382144       0.96395569 
H      -0.07221904       1.64760122       0.13489238 
H      -2.42934939       1.87528394       0.60075496 
H      -2.01374972       0.80095472       1.97059357 
H      -2.87996134       2.33793516       2.27142355 
