16

C      -0.47038322      -1.43178209       0.22205680 
C      -1.34681379      -0.42662549       0.00288075 
C      -0.84230878       0.63383117      -0.65586873 
C       0.44190589       1.51700410       0.89324791 
C       1.01246642       0.46636553      -0.26823889 
C       0.91344748      -1.01664759      -0.11382332 
H      -0.69127916      -2.36329707       0.70805474 
H      -2.34859257      -0.39934194       0.49252183 
H      -1.33279176       1.57306197      -0.52489148 
H      -0.63269725       0.51154699      -1.61992885 
H       0.07308208       1.12718660       1.66668513 
H       0.78703955       2.44461894       0.86280438 
H       1.15670970       0.86699103      -1.25750652 
H       2.11506482       0.62419418       0.03510257 
H       1.27248154      -1.47964541      -1.04374838 
H       1.60891566      -1.36766006       0.65583931 
