15

C       1.40259213       0.19649730       0.58510940 
C       0.66204475       1.44857684       0.21144953 
C       1.19141688       2.19222833      -0.95422153 
O       0.02195011       2.75521068      -1.99461938 
C       1.08466542       0.86259272      -2.33137556 
H       1.23034217      -0.59402030      -0.11806323 
H       1.07105349      -0.16184327       1.56270745 
H       2.44767886       0.36301888       0.63986752 
H      -0.39518636       1.21628453       0.05265262 
H       0.66990727       2.13160308       1.10595856 
H       1.19766133       3.25273378      -0.61447527 
H       2.21712378       2.12649294      -1.09157559 
H       1.30756883       1.33758327      -3.20907203 
H       1.77914622       0.19944301      -2.07163646 
H       0.15294502       0.49945660      -2.29519661 
