24

O      -0.08675725       0.56141167       0.14008688 
C       0.14779155      -0.84055237       0.58561761 
C       1.07259133      -1.52837706      -0.24128652 
C       2.98973993      -2.60063864      -0.17170711 
C       3.36409806      -2.57220035       1.18630007 
C       2.86930443      -3.74348723       2.03252287 
C       3.34017189      -5.12820221       1.55311370 
C       4.84998155      -5.26011362       1.47505669 
H       0.73395832       0.86756770      -0.35502024 
H       0.46160484      -0.81047356       1.65990389 
H      -0.87178536      -1.32292046       0.61855705 
H       1.29528267      -2.57829764      -0.03506431 
H       1.25249427      -1.18902665      -1.17331055 
H       2.96356838      -3.50887861      -0.65070942 
H       3.26137101      -1.82867617      -0.74730175 
H       4.49045043      -2.51845375       1.30195444 
H       3.02881324      -1.63158400       1.66757251 
H       3.20235606      -3.59501233       3.07659950 
H       1.77477945      -3.73346394       2.05314417 
H       2.94258375      -5.88433805       2.23642294 
H       2.90336755      -5.34525239       0.56971831 
H       5.31335981      -5.01655418       2.42833696 
H       5.13685349      -6.27526311       1.20960450 
H       5.26250411      -4.58950767       0.72217484 
